geometry optimzed in LAMMPS
_audit_creation_date              2020-11-30 
_audit_creation_method            'lammps2cif' 
_symmetry_space_group_name_H-M    'P1' 
_symmetry_Int_Tables_number       1 
_symmetry_cell_setting            triclinic 
loop_ 
_symmetry_equiv_pos_as_xyz 
  x,y,z 
_cell_length_a                    28.89242094 
_cell_length_b                    27.3842317703697 
_cell_length_c                    27.131900183709597 
_cell_angle_alpha                 89.03881717416719 
_cell_angle_beta                  91.68556324167963 
_cell_angle_gamma                 90.1297072717056 
loop_ 
_atom_site_label 
_atom_site_type_symbol 
_atom_site_fract_x 
_atom_site_fract_y 
_atom_site_fract_z 
_atom_site_charge 
Zr1        Zr  0.12679165  0.32297833  0.93449649     2.17500
O2          O  0.09785463  0.39860241  0.89640333    -0.51300
O3          O  0.17914204  0.31301367  0.86618809    -0.74500
O4          O  0.17351223  0.39491557  0.95855837    -0.81300
O5          O  0.03345418  0.24755838  0.87088197    -0.83000
O6          O  0.20925924  0.37777978  0.03258274    -0.78600
O7          O  0.07018954  0.32076509  0.86549151    -0.90300
O8          O  0.21187755  0.23769597  0.87354901    -0.76200
O9          O  0.19389753  0.28770186  0.97411624    -0.85700
O10         O  0.12579717  0.23836169  0.91481612    -0.85400
O11         O  0.11634045  0.33510418  0.02147787    -0.72200
O12         O  0.05533079  0.28978386  0.96470350    -0.84300
Zr13       Zr  0.11211315  0.18019606  0.07307790     2.26400
Zr14       Zr  0.18328379  0.29772760  0.06065802     2.06300
Zr15       Zr  0.05642525  0.20464518  0.94644278     2.10000
Zr16       Zr  0.19231479  0.20338178  0.95421129     1.78800
O17         O  0.47340955  0.20356370  0.95361620    -0.93100
O18         O  0.27545087  0.21773925  0.96220787    -0.40900
O19         O  0.12294167  0.16842731  0.98645071    -0.77500
O20         O  0.18397299  0.21243769  0.04178771    -0.96200
O21         O  0.11292917  0.26486437  0.09186616    -0.89500
O22         O  0.04538059  0.21467028  0.03266580    -0.92400
C23         C  0.20365840  0.27801353  0.84992813     1.01400
C24         C  0.04120452  0.28866086  0.84921277     1.14300
C25         C  0.20078031  0.40605805  0.99518977     1.05100
O26         O  0.26753908  0.29346621  0.06275157    -0.94500
O27         O  0.20531649  0.25720451  0.13808649    -0.90300
O28         O  0.16540573  0.18562140  0.14447173    -0.83400
C29         C  0.19485394  0.21727669  0.16054090     1.11700
O30         O  0.01030911  0.37629788  0.02632369    -0.96500
Zr31       Zr  0.04629427  0.29915855  0.05162160     1.88900
O32         O  0.05803352  0.19028688  0.14088382    -0.73100
O33         O  0.18142082  0.35492662  0.12846080    -0.52400
O34         O  0.04758837  0.36152938  0.11449068    -0.97100
O35         O  0.46468967  0.28353458  0.03612650    -0.54300
O36         O  0.02286169  0.26356756  0.13016663    -0.73700
C37         C  0.03069020  0.22403972  0.15527083     0.98700
O38         O  0.13754941  0.09947536  0.10174822    -0.62500
O39         O  0.05250324  0.14773758  0.87825838    -0.57300
O40         O  0.06741635  0.10752714  0.04778328    -0.94000
O41         O  0.04057745  0.12061885  0.96903674    -0.92400
O42         O  0.18045664  0.13732359  0.89622453    -0.92700
O43         O  0.23533241  0.12948503  0.97674834    -0.91500
C44         C  0.04622184  0.09368211  0.00782061     1.17500
H45         H  0.12549403  0.23347740  0.87964073     0.33500
H46         H  0.20994107  0.19677594  0.05876634     0.44300
H47         H  0.01773576  0.19847568  0.04324312     0.37800
H48         H  0.11574081  0.36955191  0.02840950     0.34300
H49         H  0.27978665  0.25230483  0.95203558     0.26100
H50         H  0.21342464  0.36773701  0.13176917     0.32100
H51         H  0.07424418  0.35269439  0.13660783     0.38000
H52         H  0.14789406  0.12713047  0.90027157     0.32400
H53         H  0.02168775  0.15292848  0.86210307     0.31300
H54         H  0.46210925  0.17782942  0.93103871     0.33000
H55         H  0.44893270  0.30775402  0.05644816     0.31900
H56         H  0.22799083  0.12272495  0.01161917     0.35900
H57         H  0.17181645  0.10084869  0.10277673     0.28700
H58         H  0.12412903  0.41244168  0.87809792     0.32900
H59         H  0.00592450  0.37408084  0.99009255     0.35800
H60         H  0.07481814  0.16036810  0.85415778     0.28400
H61         H  0.12872446  0.09710445  0.13669521     0.41200
H62         H  0.27518874  0.26094334  0.07720145     0.31300
H63         H  0.28237822  0.21708894  0.99814592     0.38900
H64         H  0.45744229  0.25166305  0.05182979     0.30800
H65         H  0.16280529  0.38294478  0.11566034     0.33600
H66         H  0.09316515  0.42117194  0.92387378     0.31100
Zr67       Zr  0.38798686  0.81971676  0.92869487     2.17500
O68         O  0.35522023  0.89693662  0.89844170    -0.51300
O69         O  0.44350732  0.81250234  0.86263796    -0.74500
O70         O  0.43678053  0.88955684  0.95228231    -0.81300
O71         O  0.28894073  0.74867439  0.86633552    -0.83000
O72         O  0.47004522  0.87246350  0.02773948    -0.78600
O73         O  0.33466012  0.81605301  0.85736713    -0.90300
O74         O  0.47412907  0.73684933  0.86997305    -0.76200
O75         O  0.45449111  0.78295543  0.96759383    -0.85700
O76         O  0.38485165  0.73538015  0.90857410    -0.85400
O77         O  0.37855685  0.83161415  0.01556637    -0.72200
O78         O  0.31622339  0.78843767  0.95993444    -0.84300
Zr79       Zr  0.37166782  0.67570039  0.06561417     2.26400
Zr80       Zr  0.44445317  0.79217714  0.05405544     2.06300
Zr81       Zr  0.31438051  0.70372890  0.93999747     2.10000
Zr82       Zr  0.45113179  0.69906922  0.94747756     1.78800
O83         O  0.23017198  0.70643744  0.93583552    -0.93100
O84         O  0.03442832  0.70428824  0.96797476    -0.40900
O85         O  0.38056438  0.66495690  0.97834130    -0.77500
O86         O  0.44381349  0.70698939  0.03471692    -0.96200
O87         O  0.37430584  0.75999845  0.08627767    -0.89500
O88         O  0.30541257  0.71339234  0.02665722    -0.92400
C89         C  0.46902535  0.77795373  0.84693585     1.01400
C90         C  0.30203711  0.78712660  0.84290287     1.14300
C91         C  0.46253849  0.90046139  0.99005427     1.05100
O92         O  0.03064975  0.78523482  0.04635192    -0.94500
O93         O  0.46822077  0.74945757  0.12883308    -0.90300
O94         O  0.42713008  0.67890493  0.13629772    -0.83400
C95         C  0.45809738  0.70960195  0.15151343     1.11700
O96         O  0.26628353  0.87185746  0.02582238    -0.96500
Zr97       Zr  0.30874493  0.79741503  0.04717507     1.88900
O98         O  0.31969864  0.68569702  0.13456528    -0.73100
O99         O  0.44187404  0.84673143  0.12399857    -0.52400
O100        O  0.32225494  0.86438067  0.10378365    -0.97100
O101        O  0.22510690  0.78928844  0.03601678    -0.54300
O102        O  0.28806923  0.76153217  0.12641193    -0.73700
C103        C  0.29516684  0.72110537  0.15014641     0.98700
O104        O  0.39641408  0.59401398  0.09177842    -0.62500
O105        O  0.32123161  0.64655421  0.87269222    -0.57300
O106        O  0.32292538  0.60558038  0.04087988    -0.94000
O107        O  0.28727334  0.62402886  0.96696750    -0.92400
O108        O  0.45416634  0.63970928  0.88189173    -0.92700
O109        O  0.48497259  0.61983132  0.96890619    -0.91500
C110        C  0.29537208  0.59534650  0.00410720     1.17500
H111        H  0.38519512  0.73123721  0.87333416     0.33500
H112        H  0.46978074  0.69051947  0.05098400     0.44300
H113        H  0.27704755  0.69833261  0.03751060     0.37800
H114        H  0.37874289  0.86610195  0.02263658     0.34300
H115        H  0.04963588  0.67880663  0.94872268     0.26100
H116        H  0.47430363  0.85748879  0.12973383     0.32100
H117        H  0.34215559  0.85026309  0.13066194     0.38000
H118        H  0.42148537  0.63021193  0.87555805     0.32400
H119        H  0.28935802  0.64338357  0.85867952     0.31300
H120        H  0.22098094  0.67967319  0.91347196     0.33000
H121        H  0.21681974  0.75926508  0.05460261     0.31900
H122        H  0.45952989  0.60110728  0.98403372     0.35900
H123        H  0.43055228  0.59422416  0.08949737     0.28700
H124        H  0.37947727  0.91210690  0.87814347     0.32900
H125        H  0.27273617  0.87807483  0.99062404     0.35800
H126        H  0.33826144  0.66438534  0.84685826     0.28400
H127        H  0.39057624  0.59185753  0.12753798     0.41200
H128        H  0.04277943  0.81259439  0.06636375     0.31300
H129        H  0.04431853  0.73551193  0.95261779     0.38900
H130        H  0.22026326  0.78077628  0.00092797     0.30800
H131        H  0.42547588  0.87628172  0.11134736     0.30800
H132        H  0.35342438  0.91782344  0.92776781     0.31100
Zr133      Zr  0.36301057  0.32148340  0.56982606     2.17500
O134        O  0.39913819  0.39746188  0.59669286    -0.51300
O135        O  0.30729489  0.31423417  0.63647833    -0.74500
O136        O  0.31532127  0.39287136  0.54435386    -0.81300
O137        O  0.45432198  0.24366205  0.63913029    -0.83000
O138        O  0.28696287  0.38039151  0.46637467    -0.78600
O139        O  0.41342192  0.31454872  0.64367926    -0.90300
O140        O  0.27012869  0.24197905  0.62793441    -0.76200
O141        O  0.29591795  0.28793443  0.53010016    -0.85700
O142        O  0.36230328  0.23685557  0.59202927    -0.85400
O143        O  0.37571166  0.33333167  0.48279656    -0.72200
O144        O  0.43406600  0.28691083  0.54077766    -0.84300
Zr145      Zr  0.37524028  0.17753208  0.43756648     2.26400
Zr146      Zr  0.30854090  0.29795165  0.44357263     2.06300
Zr147      Zr  0.43218128  0.20228823  0.56343948     2.10000
Zr148      Zr  0.29525139  0.20367366  0.55279550     1.78800
O149        O  0.01661749  0.20220500  0.57299477    -0.93100
O150        O  0.21497194  0.21792691  0.52626353    -0.40900
O151        O  0.36492346  0.16665713  0.52484955    -0.77500
O152        O  0.30451386  0.21281067  0.46582965    -0.96200
O153        O  0.37744863  0.26183620  0.41412154    -0.89500
O154        O  0.44278822  0.21127742  0.47676091    -0.92400
C155        C  0.27867576  0.28143605  0.65156027     1.01400
C156        C  0.44301325  0.28303268  0.66080609     1.14300
C157        C  0.29236756  0.40659407  0.50498459     1.05100
O158        O  0.22452503  0.30434716  0.43861637    -0.94500
O159        O  0.28195409  0.25396909  0.37120714    -0.90300
O160        O  0.32093058  0.18222092  0.36636322    -0.83400
C161        C  0.29066538  0.21346869  0.35011296     1.11700
O162        O  0.49663551  0.35951815  0.48165233    -0.96500
Zr163      Zr  0.44448149  0.29512993  0.45335450     1.88900
O164        O  0.42686739  0.18535944  0.36797980    -0.73100
O165        O  0.32078624  0.34931512  0.37099444    -0.52400
O166        O  0.44057437  0.36696383  0.39910124    -0.97100
O167        O  0.02610242  0.28214005  0.46519924    -0.54300
O168        O  0.45970537  0.26077165  0.37273851    -0.73700
C169        C  0.45156618  0.22038830  0.35057626     0.98700
O170        O  0.34354756  0.09759686  0.41693717    -0.62500
O171        O  0.42529891  0.14340353  0.63109796    -0.57300
O172        O  0.42295070  0.10645903  0.46248574    -0.94000
O173        O  0.45868305  0.12301920  0.53629552    -0.92400
O174        O  0.29141334  0.14334582  0.61947391    -0.92700
O175        O  0.26063063  0.12413454  0.53660836    -0.91500
C176        C  0.45038853  0.09523855  0.49933853     1.17500
H177        H  0.36100529  0.23216260  0.62735251     0.33500
H178        H  0.27801937  0.19773873  0.44959846     0.44300
H179        H  0.47038124  0.19462521  0.46677775     0.37800
H180        H  0.37737989  0.36779213  0.47505386     0.34300
H181        H  0.19684966  0.19261874  0.54368183     0.26100
H182        H  0.29057648  0.36537877  0.36400823     0.32100
H183        H  0.44260420  0.35434144  0.36525979     0.38000
H184        H  0.31970592  0.14900671  0.64007211     0.32400
H185        H  0.45639633  0.12850945  0.63523247     0.31300
H186        H  0.02408507  0.17128279  0.59089353     0.33000
H187        H  0.03271618  0.25596504  0.44169112     0.31900
H188        H  0.26545898  0.11872860  0.50114548     0.35900
H189        H  0.30948867  0.10168882  0.41580324     0.28700
H190        H  0.37510954  0.41468674  0.61499222     0.32900
H191        H  0.50108448  0.35334545  0.51754886     0.35800
H192        H  0.40539432  0.11704402  0.61759106     0.28400
H193        H  0.35192048  0.09223461  0.38230961     0.41200
H194        H  0.21540415  0.31256199  0.47236743     0.31300
H195        H  0.20643179  0.24885778  0.54199755     0.38900
H196        H  0.02978228  0.26632599  0.49813793     0.30800
H197        H  0.34144907  0.37580678  0.38271256     0.30800
H198        H  0.40298627  0.41717759  0.56614668     0.31100
Zr199      Zr  0.12190508  0.82465577  0.56486826     2.17500
O200        O  0.15757637  0.90024021  0.59320716    -0.51300
O201        O  0.06967066  0.81531561  0.63333539    -0.74500
O202        O  0.07183142  0.89489690  0.54191403    -0.81300
O203        O  0.21862306  0.75073496  0.62805882    -0.83000
O204        O  0.03344235  0.87752443  0.46973782    -0.78600
O205        O  0.17674965  0.82007431  0.63590065    -0.90300
O206        O  0.03944951  0.73855678  0.62986878    -0.76200
O207        O  0.05430490  0.78777687  0.52885968    -0.85700
O208        O  0.12561417  0.73993718  0.58655495    -0.85400
O209        O  0.12771313  0.83761280  0.47709732    -0.72200
O210        O  0.19272514  0.79427686  0.53203793    -0.84300
Zr211      Zr  0.13451395  0.68379529  0.43026532     2.26400
Zr212      Zr  0.06042213  0.79877543  0.44150277     2.06300
Zr213      Zr  0.19493654  0.70901583  0.55317769     2.10000
Zr214      Zr  0.05843307  0.70345973  0.55069690     1.78800
O215        O  0.27794973  0.71538248  0.54161330    -0.93100
O216        O  0.47580467  0.72406131  0.54458898    -0.40900
O217        O  0.12772522  0.67109686  0.51749719    -0.77500
O218        O  0.06287703  0.71336952  0.46273651    -0.96200
O219        O  0.13021080  0.76823582  0.40810883    -0.89500
O220        O  0.20181361  0.72041787  0.46615016    -0.92400
C221        C  0.04647777  0.77954557  0.65138594     1.01400
C222        C  0.20819922  0.78957521  0.65112667     1.14300
C223        C  0.04282419  0.90559095  0.50622662     1.05100
O224        O  0.47887625  0.79220903  0.43399125    -0.94500
O225        O  0.03679027  0.75726346  0.36588260    -0.90300
O226        O  0.08232232  0.69009440  0.35839413    -0.83400
C227        C  0.05028308  0.71942576  0.34288802     1.11700
O228        O  0.23221017  0.88392302  0.46191043    -0.96500
Zr229      Zr  0.19721437  0.80479419  0.44415492     1.88900
O230        O  0.18825031  0.69217170  0.36246833    -0.73100
O231        O  0.06170600  0.85942822  0.37484053    -0.52400
O232        O  0.18908899  0.86695991  0.37921646    -0.97100
O233        O  0.28024645  0.79509137  0.45982431    -0.54300
O234        O  0.21930876  0.76788758  0.36686671    -0.73700
C235        C  0.21356376  0.72677457  0.34521308     0.98700
O236        O  0.10838989  0.60306737  0.40500793    -0.62500
O237        O  0.20495859  0.65085976  0.62171643    -0.57300
O238        O  0.18050667  0.61191426  0.45529047    -0.94000
O239        O  0.21078726  0.62487675  0.53234263    -0.92400
O240        O  0.07174350  0.63594182  0.60889852    -0.92700
O241        O  0.01811323  0.62753641  0.53195221    -0.91500
C242        C  0.20364996  0.59822445  0.49440456     1.17500
H243        H  0.12677702  0.73493081  0.62183159     0.33500
H244        H  0.03691895  0.69676054  0.44727941     0.44300
H245        H  0.22954817  0.70527064  0.45458164     0.37800
H246        H  0.12688186  0.87211180  0.46934821     0.34300
H247        H  0.46284713  0.70639130  0.57320712     0.26100
H248        H  0.03069016  0.85734003  0.35848839     0.32100
H249        H  0.17042676  0.85125701  0.35269079     0.38000
H250        H  0.09365766  0.64893652  0.63416357     0.32400
H251        H  0.23570469  0.65820705  0.63694609     0.31300
H252        H  0.29001760  0.68223902  0.54935178     0.33000
H253        H  0.29494070  0.82169984  0.44069175     0.31900
H254        H  0.03644008  0.61267756  0.50583240     0.35900
H255        H  0.07425743  0.60531486  0.40138411     0.28700
H256        H  0.13324312  0.91737363  0.61113639     0.32900
H257        H  0.20817053  0.90224514  0.47909502     0.35800
H258        H  0.18242981  0.66091813  0.64637162     0.28400
H259        H  0.11933941  0.59954079  0.37101593     0.41200
H260        H  0.46920049  0.79251042  0.46863972     0.31300
H261        H  0.47352074  0.75891625  0.55332239     0.38900
H262        H  0.28871250  0.76492886  0.44268550     0.30800
H263        H  0.08301425  0.84585812  0.35067056     0.30800
H264        H  0.16202581  0.92008301  0.56290763     0.31100
C265        C  0.47443234  0.04670749  0.49987469    -0.05300
C266        C  0.44880027  0.00282073  0.49569797    -0.02400
C267        C  0.97003040  0.95726608  0.50210033     0.02600
C268        C  0.01895636  0.95426909  0.50594363    -0.05300
C269        C  0.04502259  0.99807567  0.50575234    -0.02400
C270        C  0.52313553  0.04393531  0.50691114     0.02600
C271        C  0.39877209  0.00468517  0.48985743     0.37300
C272        C  0.09501289  0.99588086  0.50296877     0.37200
C273        C  0.55021849  0.08840318  0.51152484     0.35700
C274        C  0.94257808  0.91285454  0.50150212     0.35700
N275        N  0.57193630  0.12376021  0.51545800    -0.39200
N276        N  0.92066227  0.87743003  0.50085509    -0.39200
N277        N  0.13480640  0.99417270  0.49958222    -0.38600
N278        N  0.35884809  0.00606285  0.48522478    -0.38600
C279        C  0.27035543  0.45619035  0.50331471    -0.05300
C280        C  0.23518389  0.46800833  0.53629775    -0.02400
C281        C  0.21210350  0.51361334  0.53217160     0.02600
C282        C  0.22479605  0.54849134  0.49594233    -0.05300
C283        C  0.26003576  0.53692259  0.46319383    -0.02400
C284        C  0.28261584  0.49109565  0.46675169     0.02600
C285        C  0.22211704  0.43284046  0.57397906     0.37300
C286        C  0.27398495  0.57298965  0.42666933     0.37200
C287        C  0.31996946  0.48094128  0.43393986     0.35700
C288        C  0.17384377  0.52394337  0.56382877     0.35700
N289        N  0.34996129  0.47372750  0.40769053    -0.39200
N290        N  0.14293268  0.53215722  0.58856240    -0.39200
N291        N  0.28480862  0.60208107  0.39776215    -0.38600
N292        N  0.21192428  0.40480080  0.60417728    -0.38600
C293        C  0.49297686  0.78434657  0.79811873    -0.05300
C294        C  0.53159123  0.75456574  0.78713440    -0.02400
C295        C  0.05118964  0.75609608  0.74079342     0.02600
C296        C  0.02991363  0.78422593  0.70254945    -0.05300
C297        C  0.99508489  0.81777252  0.71406971    -0.02400
C298        C  0.47562080  0.81693063  0.76034599     0.02600
C299        C  0.55408311  0.72402705  0.82493374     0.37300
C300        C  0.97637372  0.85024550  0.67570273     0.37200
C301        C  0.43821685  0.85044833  0.76983801     0.35700
C302        C  0.09070093  0.72564109  0.73030828     0.35700
N303        N  0.40845169  0.87733717  0.77724626    -0.39200
N304        N  0.12238948  0.70165789  0.72208125    -0.39200
N305        N  0.96181886  0.87634817  0.64506606    -0.38600
N306        N  0.57229046  0.69925402  0.85450661    -0.38600
C307        C  0.48424265  0.70057469  0.19905034    -0.05300
C308        C  0.03318572  0.71318564  0.20391079    -0.02400
C309        C  0.05335733  0.72143159  0.25094995     0.02600
C310        C  0.02869490  0.70995946  0.29368326    -0.05300
C311        C  0.48393867  0.69327853  0.28922523    -0.02400
C312        C  0.46096777  0.68842112  0.24280514     0.02600
C313        C  0.06116012  0.71935534  0.16064381     0.37300
C314        C  0.45995119  0.68170034  0.33418787     0.37200
C315        C  0.41314399  0.67236633  0.24061813     0.35700
C316        C  0.09777376  0.74611989  0.25517258     0.35700
N317        N  0.37514083  0.65891344  0.23951912    -0.39200
N318        N  0.13256355  0.76702458  0.25830755    -0.39200
N319        N  0.44098403  0.67243221  0.37015181    -0.38600
N320        N  0.08390161  0.72358266  0.12641362    -0.38600
C321        C  0.23423640  0.79797763  0.69914434    -0.05300
C322        C  0.21157116  0.81522284  0.74125616    -0.02400
C323        C  0.23421322  0.81340685  0.78833268     0.02600
C324        C  0.28002407  0.79605922  0.79354792    -0.05300
C325        C  0.30374410  0.78203548  0.75152215    -0.02400
C326        C  0.28136630  0.78345752  0.70462451     0.02600
C327        C  0.16462754  0.83366168  0.73695628     0.37300
C328        C  0.35026085  0.76232123  0.75718583     0.37200
C329        C  0.30746062  0.76968892  0.66215113     0.35700
C330        C  0.20995307  0.82776183  0.83185396     0.35700
N331        N  0.32885031  0.75854264  0.62876263    -0.39200
N332        N  0.19076177  0.83891497  0.86677329    -0.39200
N333        N  0.38695731  0.74579646  0.76206307    -0.38600
N334        N  0.12740851  0.84916485  0.73387090    -0.38600
C335        C  0.23729642  0.71978267  0.29664586    -0.05300
C336        C  0.27816008  0.74652770  0.28598256    -0.02400
C337        C  0.29626374  0.74686261  0.23816753     0.02600
C338        C  0.27657791  0.71744897  0.20092329    -0.05300
C339        C  0.23944230  0.68619348  0.21254312    -0.02400
C340        C  0.21891880  0.68825926  0.25948399     0.02600
C341        C  0.30390943  0.77180416  0.32449419     0.37300
C342        C  0.22222005  0.65201318  0.17606020     0.37200
C343        C  0.17805077  0.65883643  0.26815268     0.35700
C344        C  0.33659069  0.77661434  0.22756932     0.35700
N345        N  0.14526638  0.63542393  0.27440485    -0.39200
N346        N  0.36883509  0.80009025  0.21908876    -0.39200
N347        N  0.20888137  0.62414521  0.14732378    -0.38600
N348        N  0.32585937  0.79170723  0.35433441    -0.38600
C349        C  0.01449093  0.29795273  0.80184767    -0.05300
C350        C  0.46403040  0.28156278  0.79983060    -0.02400
C351        C  0.44173797  0.27768824  0.75303806     0.02600
C352        C  0.46512570  0.29138089  0.71006084    -0.05300
C353        C  0.01236992  0.31685620  0.71291590    -0.02400
C354        C  0.03567758  0.31827339  0.75957407     0.02600
C355        C  0.43749631  0.27316470  0.84377786     0.37300
C356        C  0.03361901  0.33747693  0.66946574     0.37200
C357        C  0.08174222  0.33925298  0.76321347     0.35700
C358        C  0.39621022  0.25537370  0.74884562     0.35700
N359        N  0.11835460  0.35646374  0.76551330    -0.39200
N360        N  0.36044273  0.23642365  0.74542107    -0.39200
N361        N  0.05005769  0.35407317  0.63456877    -0.38600
N362        N  0.41568700  0.26736704  0.87850824    -0.38600
C363        C  0.00756442  0.21857825  0.20484513    -0.05300
C364        C  0.46431997  0.23664708  0.21174297    -0.02400
C365        C  0.44724180  0.23976819  0.25992558     0.02600
C366        C  0.46985519  0.21546858  0.29995302    -0.05300
C367        C  0.00957434  0.19187043  0.29260807    -0.02400
C368        C  0.02799202  0.19054835  0.24463800     0.02600
C369        C  0.43641203  0.25685424  0.17109764     0.37300
C370        C  0.03159762  0.16469151  0.33323582     0.37200
C371        C  0.06835700  0.16051552  0.23728441     0.35700
C372        C  0.40667981  0.26930895  0.26867580     0.35700
N373        N  0.10046824  0.13615885  0.23205836    -0.39200
N374        N  0.37473306  0.29327604  0.27595254    -0.39200
N375        N  0.04892638  0.14314409  0.36585433    -0.38600
N376        N  0.41272276  0.27279638  0.13971849    -0.38600
C377        C  0.22088549  0.28302579  0.79869770    -0.05300
C378        C  0.25990328  0.31186679  0.78825271    -0.02400
C379        C  0.27701466  0.31456854  0.73971894     0.02600
C380        C  0.25559153  0.28742031  0.70078334    -0.05300
C381        C  0.21389646  0.26179049  0.71118080    -0.02400
C382        C  0.19722812  0.25920725  0.75974442     0.02600
C383        C  0.28344206  0.33736124  0.82819841     0.37300
C384        C  0.18701605  0.23865503  0.67198910     0.37200
C385        C  0.15534829  0.23182320  0.76986259     0.35700
C386        C  0.31768286  0.34423976  0.73105573     0.35700
N387        N  0.12198381  0.21011495  0.77818301    -0.39200
N388        N  0.35019625  0.36797387  0.72450110    -0.39200
N389        N  0.16531691  0.22012153  0.64099290    -0.38600
N390        N  0.30202764  0.35737377  0.86040510    -0.38600
C391        C  0.26375686  0.20377367  0.30330096    -0.05300
C392        C  0.28574128  0.18661052  0.26086504    -0.02400
C393        C  0.26265129  0.18948288  0.21413062     0.02600
C394        C  0.21734288  0.20852681  0.20965321    -0.05300
C395        C  0.19462069  0.22316568  0.25214016    -0.02400
C396        C  0.21683055  0.21866805  0.29886968     0.02600
C397        C  0.33245603  0.16738228  0.26450772     0.37300
C398        C  0.15012292  0.24755582  0.24742219     0.37200
C399        C  0.19072026  0.22892709  0.34239412     0.35700
C400        C  0.28665865  0.17616448  0.17011596     0.35700
N401        N  0.16897693  0.23660942  0.37655149    -0.39200
N402        N  0.30598622  0.16619305  0.13491218    -0.39200
N403        N  0.11527612  0.26825115  0.24392166    -0.38600
N404        N  0.36949163  0.15133388  0.26694175    -0.38600
C405        C  0.48344179  0.94988155  0.99242767    -0.05300
C406        C  0.46052214  0.98698644  0.01764063    -0.02400
C407        C  0.48210072  0.03273523  0.02503647     0.02600
C408        C  0.02586901  0.04339443  0.00553974    -0.05300
C409        C  0.03361362  0.01344216  0.96437462    -0.02400
C410        C  0.01099015  0.96780935  0.95964522     0.02600
C411        C  0.41409916  0.97826768  0.03489529     0.37300
C412        C  0.06567170  0.02882101  0.92697377     0.37200
C413        C  0.01875989  0.93808252  0.91687363     0.35700
C414        C  0.45757697  0.07107414  0.04959963     0.35700
N415        N  0.02461610  0.91461323  0.88253072    -0.39200
N416        N  0.43770909  0.10150781  0.06911727    -0.39200
N417        N  0.09112584  0.04029505  0.89672223    -0.38600
N418        N  0.37695783  0.97108989  0.04817910    -0.38600
C419        C  0.22474605  0.45478525  0.99510245    -0.05300
C420        C  0.19929606  0.49890911  0.99245871    -0.02400
C421        C  0.22225499  0.54455861  0.99684352     0.02600
C422        C  0.27103796  0.54687739  0.00346386    -0.05300
C423        C  0.29646543  0.50279948  0.00576226    -0.02400
C424        C  0.27352967  0.45719868  0.00138313     0.02600
C425        C  0.14923749  0.49761462  0.98708424     0.37300
C426        C  0.34652998  0.50424698  0.01114029     0.37200
C427        C  0.30043492  0.41252771  0.00135428     0.35700
C428        C  0.19532183  0.58924347  0.99690851     0.35700
N429        N  0.32165161  0.37675062  0.00093605    -0.39200
N430        N  0.17385952  0.62485957  0.99744969    -0.39200
N431        N  0.38649018  0.50519255  0.01544061    -0.38600
N432        N  0.10925726  0.49734934  0.98296474    -0.38600
Zr433      Zr  0.62667169  0.32049442  0.93476253     2.17500
O434        O  0.59244493  0.39472976  0.89906331    -0.51300
O435        O  0.68042864  0.31194788  0.86756798    -0.74500
O436        O  0.67486599  0.39206822  0.95732771    -0.81300
O437        O  0.52921110  0.24488671  0.87388687    -0.83000
O438        O  0.71189813  0.37490776  0.03070106    -0.78600
O439        O  0.56936688  0.31594234  0.86604686    -0.90300
O440        O  0.71514723  0.23766673  0.87631151    -0.76200
O441        O  0.69409036  0.28596608  0.97436047    -0.85700
O442        O  0.62666772  0.23574532  0.91544539    -0.85400
O443        O  0.61672437  0.33333099  0.02173188    -0.72200
O444        O  0.55598834  0.28679681  0.96587251    -0.84300
Zr445      Zr  0.61403827  0.17816200  0.07380569     2.26400
Zr446      Zr  0.68399223  0.29652273  0.06066231     2.06300
Zr447      Zr  0.55723762  0.20189385  0.94746065     2.10000
Zr448      Zr  0.69367916  0.20155183  0.95530384     1.78800
O449        O  0.97262077  0.20609254  0.95206172    -0.93100
O450        O  0.77681810  0.21596450  0.96462976    -0.40900
O451        O  0.62429841  0.16628585  0.98719616    -0.77500
O452        O  0.68543179  0.21117941  0.04259524    -0.96200
O453        O  0.61423494  0.26291524  0.09258014    -0.89500
O454        O  0.54694674  0.21219687  0.03366175    -0.92400
C455        C  0.70672136  0.27780440  0.85255701     1.01400
C456        C  0.53825422  0.28517018  0.85130204     1.14300
C457        C  0.70327512  0.40292321  0.99320003     1.05100
O458        O  0.76810024  0.29104469  0.06379852    -0.94500
O459        O  0.70764054  0.25737490  0.13777054    -0.90300
O460        O  0.66625383  0.18688389  0.14606870    -0.83400
C461        C  0.69641889  0.21833254  0.16121996     1.11700
O462        O  0.50829051  0.37179512  0.02587110    -0.96500
Zr463      Zr  0.54719574  0.29668973  0.05267289     1.88900
O464        O  0.55768894  0.18547383  0.13951392    -0.73100
O465        O  0.68103718  0.35447422  0.12771613    -0.52400
O466        O  0.54969660  0.35987195  0.11472098    -0.97100
O467        O  0.96441171  0.28485609  0.03202966    -0.54300
O468        O  0.52349111  0.25957837  0.13041135    -0.73700
C469        C  0.53050751  0.21916995  0.15428296     0.98700
O470        O  0.64431122  0.09879716  0.10087053    -0.62500
O471        O  0.55649827  0.14523962  0.87907048    -0.57300
O472        O  0.57022388  0.10473535  0.04883829    -0.94000
O473        O  0.53961617  0.11874034  0.97151625    -0.92400
O474        O  0.68231816  0.13364596  0.89937556    -0.92700
O475        O  0.73854835  0.12863396  0.97740274    -0.91500
C476        C  0.54712234  0.09158394  0.00979771     1.17500
H477        H  0.62667801  0.23092291  0.88025720     0.33500
H478        H  0.71152300  0.19596926  0.05972791     0.44300
H479        H  0.51939625  0.19587833  0.04438465     0.37800
H480        H  0.61615884  0.36783721  0.02835708     0.34300
H481        H  0.78181523  0.24915274  0.95071282     0.26100
H482        H  0.71360126  0.36459749  0.13381314     0.32100
H483        H  0.57912374  0.35405732  0.13348901     0.38000
H484        H  0.70508132  0.13913377  0.87326786     0.32400
H485        H  0.52469348  0.14706905  0.86453039     0.31300
H486        H  0.96208620  0.17512866  0.93706320     0.33000
H487        H  0.94773495  0.31063436  0.04944199     0.31900
H488        H  0.74859685  0.13268825  0.01229750     0.35900
H489        H  0.67818681  0.10118385  0.09674246     0.28700
H490        H  0.61845904  0.41413510  0.88602625     0.32900
H491        H  0.52821022  0.38585573  0.00015148     0.35800
H492        H  0.57623809  0.16061772  0.85396199     0.28400
H493        H  0.64027377  0.09712340  0.13696921     0.41200
H494        H  0.77833918  0.31727478  0.08632917     0.31300
H495        H  0.78269183  0.21939423  0.00052262     0.38900
H496        H  0.95635828  0.25432292  0.04983654     0.30800
H497        H  0.66562219  0.38384612  0.11324451     0.33600
H498        H  0.58163035  0.41313423  0.92758422     0.31100
Zr499      Zr  0.88877086  0.81826952  0.92917786     2.17500
O500        O  0.85560756  0.89532541  0.89898483    -0.51300
O501        O  0.94566058  0.81329387  0.86445224    -0.74500
O502        O  0.93579225  0.88921076  0.95524096    -0.81300
O503        O  0.79273621  0.74442307  0.86299961    -0.83000
O504        O  0.96795634  0.87267123  0.03123005    -0.78600
O505        O  0.83721230  0.81300196  0.85577103    -0.90300
O506        O  0.97782570  0.73821363  0.87084148    -0.76200
O507        O  0.95597747  0.78121056  0.96658755    -0.85700
O508        O  0.88592799  0.73409071  0.90794613    -0.85400
O509        O  0.88019513  0.82889110  0.01657117    -0.72200
O510        O  0.81704661  0.78571433  0.95984165    -0.84300
Zr511      Zr  0.87480148  0.67271634  0.06391355     2.26400
Zr512      Zr  0.94699551  0.78962456  0.05333059     2.06300
Zr513      Zr  0.81572744  0.70124504  0.93889559     2.10000
Zr514      Zr  0.95243884  0.69731660  0.94561674     1.78800
O515        O  0.73161395  0.70684440  0.93625242    -0.93100
O516        O  0.53240953  0.71534471  0.96799178    -0.40900
O517        O  0.88229904  0.66275142  0.97645307    -0.77500
O518        O  0.94652705  0.70475698  0.03305815    -0.96200
O519        O  0.87704662  0.75689522  0.08493881    -0.89500
O520        O  0.80785591  0.71016651  0.02573855    -0.92400
C521        C  0.97214644  0.77966036  0.84865881     1.01400
C522        C  0.80570061  0.78322677  0.83993257     1.14300
C523        C  0.96025967  0.90101418  0.99381920     1.05100
O524        O  0.52864743  0.78993016  0.05424190    -0.94500
O525        O  0.97116108  0.74695775  0.12792642    -0.90300
O526        O  0.92986999  0.67657018  0.13511573    -0.83400
C527        C  0.96083216  0.70718807  0.15062266     1.11700
O528        O  0.76949331  0.86550374  0.01443307    -0.96500
Zr529      Zr  0.81054256  0.79386131  0.04734634     1.88900
O530        O  0.82353197  0.68131670  0.13328839    -0.73100
O531        O  0.95001896  0.83853801  0.12762683    -0.52400
O532        O  0.81741220  0.86283386  0.10266822    -0.97100
O533        O  0.72737789  0.77907134  0.04931250    -0.54300
O534        O  0.79584734  0.75901315  0.12865894    -0.73700
C535        C  0.80183634  0.71766317  0.15106584     0.98700
O536        O  0.90373041  0.59191530  0.08775002    -0.62500
O537        O  0.82218344  0.64142648  0.87393157    -0.57300
O538        O  0.82578054  0.60246580  0.03982559    -0.94000
O539        O  0.78866353  0.62164060  0.96682184    -0.92400
O540        O  0.95545450  0.64431683  0.87468123    -0.92700
O541        O  0.97766422  0.61358943  0.96173717    -0.91500
C542        C  0.79752164  0.59254570  0.00350561     1.17500
H543        H  0.88646877  0.73025906  0.87269530     0.33500
H544        H  0.97261719  0.68821725  0.04896348     0.44300
H545        H  0.77977766  0.69496306  0.03683740     0.37800
H546        H  0.87974055  0.86313787  0.02436774     0.34300
H547        H  0.54957741  0.68743398  0.95479788     0.26100
H548        H  0.97751454  0.85993598  0.12480901     0.32100
H549        H  0.83486828  0.85003229  0.13202536     0.38000
H550        H  0.92263381  0.63866112  0.86489530     0.32400
H551        H  0.78981302  0.63289602  0.86460419     0.31300
H552        H  0.72140592  0.68245327  0.91166949     0.33000
H553        H  0.71512763  0.78841438  0.01602080     0.31900
H554        H  0.95629057  0.60068858  0.98669939     0.35900
H555        H  0.93783182  0.59430268  0.08582237     0.28700
H556        H  0.88060679  0.91183974  0.88082824     0.32900
H557        H  0.79174230  0.88174882  0.99241328     0.35800
H558        H  0.83363970  0.65991109  0.84507633     0.28400
H559        H  0.89775941  0.58825223  0.12338272     0.41200
H560        H  0.53862250  0.81390421  0.07934478     0.31300
H561        H  0.54084373  0.74341422  0.94657361     0.38900
H562        H  0.71553069  0.80438690  0.07131242     0.30800
H563        H  0.92313227  0.86072820  0.12400179     0.30800
H564        H  0.85155167  0.91521073  0.92869307     0.31100
Zr565      Zr  0.86343749  0.32241730  0.57132814     2.17500
O566        O  0.90071169  0.39881373  0.59498591    -0.51300
O567        O  0.80923453  0.31575857  0.63902131    -0.74500
O568        O  0.81509130  0.39309756  0.54634870    -0.81300
O569        O  0.95779557  0.24637657  0.63763410    -0.83000
O570        O  0.78857758  0.38116113  0.46764702    -0.78600
O571        O  0.91600243  0.31665633  0.64300233    -0.90300
O572        O  0.77476428  0.24174372  0.63221922    -0.76200
O573        O  0.79624018  0.28815470  0.53257491    -0.85700
O574        O  0.86327079  0.23786067  0.59381769    -0.85400
O575        O  0.87454304  0.33468616  0.48447451    -0.72200
O576        O  0.93412677  0.28786066  0.54223743    -0.84300
Zr577      Zr  0.87589700  0.17901171  0.43861400     2.26400
Zr578      Zr  0.80762494  0.29807078  0.44604497     2.06300
Zr579      Zr  0.93253772  0.20289741  0.56429733     2.10000
Zr580      Zr  0.79622839  0.20400485  0.55527934     1.78800
O581        O  0.51614734  0.20895233  0.56995375    -0.93100
O582        O  0.71528914  0.22297168  0.53541772    -0.40900
O583        O  0.86542864  0.16735611  0.52564995    -0.77500
O584        O  0.80476823  0.21280909  0.46785634    -0.96200
O585        O  0.87689480  0.26344225  0.41609542    -0.89500
O586        O  0.94307228  0.21351217  0.47766520    -0.92400
C587        C  0.78238791  0.28184973  0.65513495     1.01400
C588        C  0.94659764  0.28586933  0.65915586     1.14300
C589        C  0.79326064  0.40708617  0.50641933     1.05100
O590        O  0.72352133  0.29879927  0.44929179    -0.94500
O591        O  0.78529628  0.25651167  0.37107892    -0.90300
O592        O  0.82227836  0.18357793  0.36707597    -0.83400
C593        C  0.79347599  0.21589533  0.35008464     1.11700
O594        O  0.99112898  0.36785611  0.47739422    -0.96500
Zr595      Zr  0.94336965  0.29780951  0.45511430     1.88900
O596        O  0.92748587  0.18932869  0.36920511    -0.73100
O597        O  0.80786686  0.34977176  0.37211648    -0.52400
O598        O  0.93336453  0.36716550  0.39840658    -0.97100
O599        O  0.52681067  0.27492548  0.45648486    -0.54300
O600        O  0.96052659  0.26459624  0.37505449    -0.73700
C601        C  0.95220986  0.22462909  0.35235091     0.98700
O602        O  0.84649423  0.09846092  0.41668103    -0.62500
O603        O  0.92007037  0.14458540  0.63153534    -0.57300
O604        O  0.92347778  0.10769892  0.46285994    -0.94000
O605        O  0.95788710  0.12301262  0.53762224    -0.92400
O606        O  0.79949094  0.14031494  0.61909627    -0.92700
O607        O  0.75557660  0.12796060  0.53733041    -0.91500
C608        C  0.95004503  0.09576440  0.50016875     1.17500
H609        H  0.86257962  0.23341258  0.62912040     0.33500
H610        H  0.77840957  0.19753391  0.45158355     0.44300
H611        H  0.97092873  0.19745203  0.46742684     0.37800
H612        H  0.87600404  0.36914700  0.47672434     0.34300
H613        H  0.69709172  0.19720522  0.55202952     0.26100
H614        H  0.77797332  0.36741186  0.37161557     0.32100
H615        H  0.95955808  0.36505758  0.37581936     0.38000
H616        H  0.76967474  0.14262905  0.63600417     0.32400
H617        H  0.90791504  0.16400862  0.65872492     0.31300
H618        H  0.52600373  0.18051930  0.59066314     0.33000
H619        H  0.53033943  0.24666423  0.43463714     0.31900
H620        H  0.77763110  0.10888765  0.51812071     0.35900
H621        H  0.81234176  0.10157600  0.41530817     0.28700
H622        H  0.87708911  0.41723903  0.61269900     0.32900
H623        H  0.97926116  0.37835415  0.50939673     0.35800
H624        H  0.95160370  0.13501613  0.64321001     0.28400
H625        H  0.85528107  0.09384589  0.38205972     0.41200
H626        H  0.71645160  0.32002480  0.47727201     0.31300
H627        H  0.70886601  0.25299377  0.55384907     0.38900
H628        H  0.53295786  0.26157194  0.49014035     0.30800
H629        H  0.83160255  0.37500626  0.37911624     0.30800
H630        H  0.90464110  0.41717565  0.56362203     0.31100
Zr631      Zr  0.62395992  0.82534748  0.56306227     2.17500
O632        O  0.66322897  0.90058203  0.58680861    -0.51300
O633        O  0.57207101  0.81628521  0.63279552    -0.74500
O634        O  0.57381012  0.89527239  0.54019744    -0.81300
O635        O  0.72081684  0.75114866  0.62558284    -0.83000
O636        O  0.53475654  0.87759404  0.46850555    -0.78600
O637        O  0.67929933  0.82083597  0.63359782    -0.90300
O638        O  0.54080870  0.74005433  0.62832914    -0.76200
O639        O  0.55614014  0.78977788  0.52621567    -0.85700
O640        O  0.62614729  0.74076804  0.58506756    -0.85400
O641        O  0.63035906  0.83747974  0.47508879    -0.72200
O642        O  0.69418825  0.79360134  0.53024136    -0.84300
Zr643      Zr  0.63517648  0.68316517  0.42861724     2.26400
Zr644      Zr  0.56282305  0.79984677  0.43894507     2.06300
Zr645      Zr  0.69503887  0.70866190  0.55194817     2.10000
Zr646      Zr  0.55843497  0.70572706  0.54872608     1.78800
O647        O  0.77855199  0.71326781  0.54349516    -0.93100
O648        O  0.97494615  0.71405484  0.54019094    -0.40900
O649        O  0.62740404  0.67156103  0.51597014    -0.77500
O650        O  0.56392721  0.71464857  0.46075451    -0.96200
O651        O  0.63206694  0.76767589  0.40600539    -0.89500
O652        O  0.70273521  0.71904160  0.46488635    -0.92400
C653        C  0.54806731  0.78065666  0.65034263     1.01400
C654        C  0.71078952  0.79020947  0.64848585     1.14300
C655        C  0.54440365  0.90573831  0.50486483     1.05100
O656        O  0.97628870  0.79309524  0.44131408    -0.94500
O657        O  0.54030494  0.75870586  0.36299541    -0.90300
O658        O  0.58395309  0.68999566  0.35623662    -0.83400
C659        C  0.55274652  0.72016400  0.34051538     1.11700
O660        O  0.72874312  0.88600757  0.45256326    -0.96500
Zr661      Zr  0.69927183  0.80328540  0.44242205     1.88900
O662        O  0.68940444  0.68963071  0.36041976    -0.73100
O663        O  0.56342236  0.86300475  0.37455193    -0.52400
O664        O  0.69427126  0.86018150  0.37255051    -0.97100
O665        O  0.78136551  0.79764812  0.46539516    -0.54300
O666        O  0.72441504  0.76285147  0.36834566    -0.73700
C667        C  0.71763215  0.72275592  0.34524615     0.98700
O668        O  0.60231447  0.60390765  0.40733876    -0.62500
O669        O  0.70080860  0.65136358  0.62160353    -0.57300
O670        O  0.68159031  0.61141209  0.45389200    -0.94000
O671        O  0.71176241  0.62511513  0.53090865    -0.92400
O672        O  0.57090012  0.63640962  0.60483709    -0.92700
O673        O  0.50944118  0.63589310  0.52871039    -0.91500
C674        C  0.70477862  0.59817705  0.49322119     1.17500
H675        H  0.62728335  0.73575314  0.62037122     0.33500
H676        H  0.53772905  0.69848437  0.44520444     0.44300
H677        H  0.73045240  0.70366455  0.45382273     0.37800
H678        H  0.63020037  0.87200129  0.46737445     0.34300
H679        H  0.96219587  0.70254882  0.57182046     0.26100
H680        H  0.57699827  0.84718636  0.34580607     0.32100
H681        H  0.66627040  0.84998356  0.35346507     0.38000
H682        H  0.60496124  0.63315271  0.60804689     0.32400
H683        H  0.73274485  0.65516724  0.63527859     0.31300
H684        H  0.79051998  0.68294514  0.55959414     0.33000
H685        H  0.79666033  0.82336624  0.44560904     0.31900
H686        H  0.52741089  0.61702207  0.50506284     0.35900
H687        H  0.56832458  0.60853226  0.40727648     0.28700
H688        H  0.63891804  0.92288659  0.59800487     0.32900
H689        H  0.73116951  0.89027100  0.48870491     0.35800
H690        H  0.68078880  0.66498147  0.64694366     0.28400
H691        H  0.60967591  0.59911462  0.37234035     0.41200
H692        H  0.96573127  0.81181735  0.41154515     0.31300
H693        H  0.96995679  0.74981021  0.53987958     0.38900
H694        H  0.79186494  0.76667438  0.45116375     0.30800
H695        H  0.58727999  0.88670238  0.38570157     0.30800
H696        H  0.67371645  0.91505547  0.55538730     0.31100
C697        C  0.97365619  0.04704016  0.50059345    -0.05300
C698        C  0.94758302  0.00328273  0.49909187    -0.02400
C699        C  0.47141686  0.95694072  0.49909841     0.02600
C700        C  0.52023458  0.95419041  0.50500638    -0.05300
C701        C  0.54592416  0.99814454  0.50829564    -0.02400
C702        C  0.02254881  0.04407816  0.50421987     0.02600
C703        C  0.89743379  0.00551461  0.49575933     0.37300
C704        C  0.59612387  0.99667623  0.51036397     0.37200
C705        C  0.04992381  0.08857049  0.50457523     0.35700
C706        C  0.44402681  0.91247521  0.49851381     0.35700
N707        N  0.07165479  0.12412815  0.50487399    -0.39200
N708        N  0.42188899  0.87720233  0.49848638    -0.39200
N709        N  0.63618682  0.99614524  0.51135223    -0.38600
N710        N  0.85741414  0.00719220  0.49308632    -0.38600
C711        C  0.77164533  0.45660634  0.50417865    -0.05300
C712        C  0.73825304  0.46967371  0.53858115    -0.02400
C713        C  0.71551068  0.51535415  0.53426993     0.02600
C714        C  0.72615484  0.54862741  0.49567842    -0.05300
C715        C  0.76028893  0.53604536  0.46200690    -0.02400
C716        C  0.78260153  0.49016219  0.46590967     0.02600
C717        C  0.72637016  0.43543247  0.57763808     0.37300
C718        C  0.77450948  0.57167468  0.42519372     0.37200
C719        C  0.81837534  0.47851597  0.43162409     0.35700
C720        C  0.68055891  0.52779247  0.56922706     0.35700
N721        N  0.84704945  0.46982422  0.40421604    -0.39200
N722        N  0.65268479  0.53763014  0.59716198    -0.39200
N723        N  0.78602508  0.60054373  0.39639052    -0.38600
N724        N  0.71721504  0.40782722  0.60864208    -0.38600
C725        C  0.99614323  0.78722486  0.80028419    -0.05300
C726        C  0.03544102  0.75855278  0.78944518    -0.02400
C727        C  0.54950836  0.75441161  0.73922990     0.02600
C728        C  0.53018030  0.78444354  0.70127069    -0.05300
C729        C  0.49357339  0.81612828  0.71213694    -0.02400
C730        C  0.97787975  0.81915229  0.76248536     0.02600
C731        C  0.06147848  0.73288893  0.82838175     0.37300
C732        C  0.47237906  0.84576940  0.67284697     0.37200
C733        C  0.94055056  0.85266394  0.77220498     0.35700
C734        C  0.58847411  0.72305937  0.72902552     0.35700
N735        N  0.91075780  0.87951500  0.77960876    -0.39200
N736        N  0.61957867  0.69805930  0.72129900    -0.39200
N737        N  0.45497276  0.86904509  0.64151953    -0.38600
N738        N  0.08306852  0.71253082  0.85884922    -0.38600
C739        C  0.98620696  0.69853316  0.19886386    -0.05300
C740        C  0.53199833  0.71259002  0.20231359    -0.02400
C741        C  0.55429724  0.71903499  0.24860577     0.02600
C742        C  0.53001674  0.71036981  0.29214414    -0.05300
C743        C  0.98370958  0.69004391  0.28898452    -0.02400
C744        C  0.96231631  0.68465120  0.24173765     0.02600
C745        C  0.55862880  0.71787529  0.15799007     0.37300
C746        C  0.95885810  0.67676164  0.33289535     0.37200
C747        C  0.91535635  0.66620657  0.23761588     0.35700
C748        C  0.60132086  0.73783955  0.25129647     0.35700
N749        N  0.87804169  0.65094163  0.23432272    -0.39200
N750        N  0.63848744  0.75367327  0.25311376    -0.39200
N751        N  0.93898898  0.66623606  0.36794643    -0.38600
N752        N  0.58051728  0.72152187  0.12307247    -0.38600
C753        C  0.73703310  0.79838778  0.69628083    -0.05300
C754        C  0.71372560  0.81127096  0.73941683    -0.02400
C755        C  0.73658092  0.80778102  0.78627782     0.02600
C756        C  0.78332452  0.79289818  0.79053341    -0.05300
C757        C  0.80738603  0.78265456  0.74739828    -0.02400
C758        C  0.78476974  0.78641645  0.70057424     0.02600
C759        C  0.66572859  0.82652340  0.73623594     0.37300
C760        C  0.85421601  0.76368981  0.75132712     0.37200
C761        C  0.81102709  0.77792022  0.65673077     0.35700
C762        C  0.71120759  0.81714763  0.83047310     0.35700
N763        N  0.83234064  0.77137682  0.62200229    -0.39200
N764        N  0.69067910  0.82416676  0.86564403    -0.39200
N765        N  0.89112934  0.74738749  0.75402798    -0.38600
N766        N  0.62762112  0.83945220  0.73403860    -0.38600
C767        C  0.74353995  0.71582487  0.29746505    -0.05300
C768        C  0.78099383  0.74756101  0.28501451    -0.02400
C769        C  0.80124431  0.74571135  0.23827675     0.02600
C770        C  0.78434836  0.71334983  0.20225552    -0.05300
C771        C  0.75092435  0.67830614  0.21537921    -0.02400
C772        C  0.73069776  0.67918675  0.26258273     0.02600
C773        C  0.80007636  0.78244404  0.31980611     0.37300
C774        C  0.73732617  0.64142429  0.17993431     0.37200
C775        C  0.69656869  0.64219050  0.27414958     0.35700
C776        C  0.84162174  0.77557764  0.22790531     0.35700
N777        N  0.66966034  0.61212374  0.28287603    -0.39200
N778        N  0.87430545  0.79855169  0.21988555    -0.39200
N779        N  0.72724417  0.61194607  0.15145447    -0.38600
N780        N  0.81571146  0.81081758  0.34671972    -0.38600
C781        C  0.51148303  0.29480894  0.80392688    -0.05300
C782        C  0.96827622  0.28062969  0.79712159    -0.02400
C783        C  0.94630352  0.27706041  0.75037776     0.02600
C784        C  0.96856389  0.29439444  0.70813937    -0.05300
C785        C  0.51100937  0.30887990  0.71420491    -0.02400
C786        C  0.53419099  0.31055524  0.76085032     0.02600
C787        C  0.94238139  0.26743213  0.84038212     0.37300
C788        C  0.53515771  0.32282710  0.67000268     0.37200
C789        C  0.58186251  0.32704362  0.76386822     0.35700
C790        C  0.90145396  0.25328259  0.74545153     0.35700
N791        N  0.61975626  0.34077759  0.76606625    -0.39200
N792        N  0.86597740  0.23383802  0.74141827    -0.39200
N793        N  0.55445389  0.33369303  0.63467592    -0.38600
N794        N  0.92069242  0.25742747  0.87427884    -0.38600
C795        C  0.50694049  0.21267942  0.20322051    -0.05300
C796        C  0.96598588  0.24441653  0.21413441    -0.02400
C797        C  0.94843816  0.24624884  0.26225143     0.02600
C798        C  0.97045576  0.22055648  0.30172506    -0.05300
C799        C  0.51000826  0.18802900  0.29140878    -0.02400
C800        C  0.52874579  0.18685341  0.24358568     0.02600
C801        C  0.93928566  0.26746932  0.17411764     0.37300
C802        C  0.53347588  0.16311083  0.33255995     0.37200
C803        C  0.57159463  0.16057864  0.23704235     0.35700
C804        C  0.90701052  0.27438545  0.27129636     0.35700
N805        N  0.60590472  0.13974325  0.23203043    -0.39200
N806        N  0.87401152  0.29661612  0.27885266    -0.39200
N807        N  0.55230158  0.14343534  0.36545902    -0.38600
N808        N  0.91705624  0.28570642  0.14280467    -0.38600
C809        C  0.72499358  0.28277307  0.80195932    -0.05300
C810        C  0.76434146  0.31140417  0.79196698    -0.02400
C811        C  0.78161447  0.31419158  0.74350276     0.02600
C812        C  0.75994935  0.28743923  0.70447112    -0.05300
C813        C  0.71831154  0.26184338  0.71456971    -0.02400
C814        C  0.70175998  0.25870244  0.76295803     0.02600
C815        C  0.78798122  0.33667703  0.83201095     0.37300
C816        C  0.69092991  0.23980217  0.67512967     0.37200
C817        C  0.66017200  0.23061926  0.77261081     0.35700
C818        C  0.82220825  0.34400421  0.73476895     0.35700
N819        N  0.62690028  0.20841678  0.78002557    -0.39200
N820        N  0.85448413  0.36808612  0.72812858    -0.39200
N821        N  0.66839770  0.22216688  0.64426072    -0.38600
N822        N  0.80699512  0.35670942  0.86394149    -0.38600
C823        C  0.76681008  0.20701601  0.30310451    -0.05300
C824        C  0.78830324  0.18910734  0.26076029    -0.02400
C825        C  0.76446214  0.19082516  0.21440528     0.02600
C826        C  0.71930353  0.21036941  0.21018810    -0.05300
C827        C  0.69717280  0.22593767  0.25269282    -0.02400
C828        C  0.71996053  0.22205865  0.29910692     0.02600
C829        C  0.83486416  0.16946233  0.26433919     0.37300
C830        C  0.65198609  0.24893798  0.24851270     0.37200
C831        C  0.69433899  0.23185540  0.34306970     0.35700
C832        C  0.78683162  0.17399480  0.17064962     0.35700
N833        N  0.67343203  0.23873589  0.37799598    -0.39200
N834        N  0.80453634  0.16061416  0.13563596    -0.39200
N835        N  0.61628648  0.26801523  0.24562577    -0.38600
N836        N  0.87174046  0.15301011  0.26687389    -0.38600
C837        C  0.98101018  0.95095086  0.99636095    -0.05300
C838        C  0.97254451  0.98113447  0.03702711    -0.02400
C839        C  0.99495925  0.02692152  0.04171278     0.02600
C840        C  0.52700349  0.04159009  0.00762130    -0.05300
C841        C  0.54960724  0.00458196  0.98165321    -0.02400
C842        C  0.52766966  0.95902351  0.97368418     0.02600
C843        C  0.93802353  0.96681326  0.07227944     0.37300
C844        C  0.59538107  0.01345936  0.96285661     0.37200
C845        C  0.54989083  0.92197144  0.94503646     0.35700
C846        C  0.98396582  0.05827588  0.08235382     0.35700
N847        N  0.56717615  0.89255233  0.92161787    -0.39200
N848        N  0.97489834  0.08330124  0.11463648    -0.39200
N849        N  0.63197811  0.02024416  0.94788654    -0.38600
N850        N  0.90993854  0.95624320  0.10008958    -0.38600
C851        C  0.72760617  0.45149861  0.99281972    -0.05300
C852        C  0.70206694  0.49551177  0.99016358    -0.02400
C853        C  0.72467096  0.54118400  0.99594246     0.02600
C854        C  0.77344018  0.54384352  0.00260532    -0.05300
C855        C  0.79912697  0.49990251  0.00415749    -0.02400
C856        C  0.77637576  0.45411277  0.99999009     0.02600
C857        C  0.65214699  0.49395030  0.98312577     0.37300
C858        C  0.84927920  0.50176946  0.00807885     0.37200
C859        C  0.80354801  0.40958212  0.00176628     0.35700
C860        C  0.69729036  0.58546577  0.99721348     0.35700
N861        N  0.82537604  0.37417133  0.00321704    -0.39200
N862        N  0.67525475  0.62062083  0.99871880    -0.39200
N863        N  0.88930763  0.50318747  0.01088386    -0.38600
N864        N  0.61231325  0.49307431  0.97737275    -0.38600
loop_ 
_geom_bond_atom_site_label_1 
_geom_bond_atom_site_label_2 
_geom_bond_distance 
_geom_bond_site_symmetry_2 
_ccdc_geom_bond_type 
Zr1           O2   2.437       .  S
Zr1           O3   2.446       .  S
Zr1           O4   2.471       .  S
Zr1           O7   2.451       .  S
Zr1           O9   2.387       .  S
Zr1          O10   2.387       .  S
Zr1          O11   2.417   1_556  S
Zr1          O12   2.414       .  S
O2           H58   0.991       .  S
O2           H66   0.989       .  S
O3           C23   1.285       .  A
O4           C25   1.290       .  A
O5          Zr15   2.422       .  S
O5           C24   1.283       .  A
O6          Zr14   2.433       .  S
O6           C25   1.284   1_554  A
O7           C24   1.287       .  A
O8          Zr16   2.448       .  S
O8           C23   1.286       .  A
O9          Zr14   2.397   1_556  S
O9          Zr16   2.380       .  S
O10         Zr15   2.382       .  S
O10         Zr16   2.368       .  S
O10          H45   0.966       .  S
O11         Zr14   2.402       .  S
O11         Zr31   2.407       .  S
O11          H48   0.965       .  S
O12         Zr15   2.392       .  S
O12         Zr31   2.398   1_556  S
Zr13         O38   2.439       .  S
Zr13         O32   2.468       .  S
Zr13         O40   2.466       .  S
Zr13         O28   2.445       .  S
Zr13         O19   2.407   1_554  S
Zr13         O20   2.425       .  S
Zr13         O21   2.382       .  S
Zr13         O22   2.379       .  S
Zr14         O33   2.438       .  S
Zr14         O26   2.436       .  S
Zr14         O27   2.428       .  S
Zr14         O20   2.400       .  S
Zr14         O21   2.393       .  S
Zr15         O39   2.439       .  S
Zr15        O449   2.431   1_455  S
Zr15         O41   2.418       .  S
Zr15         O19   2.389       .  S
Zr15         O22   2.391   1_556  S
Zr16         O42   2.434       .  S
Zr16         O43   2.437       .  S
Zr16         O18   2.437       .  S
Zr16         O19   2.401       .  S
Zr16         O20   2.412   1_556  S
O17        Zr447   2.433       .  S
O17          H54   0.990       .  S
O18          H49   0.990       .  S
O18          H63   0.989       .  S
O20          H46   0.966       .  S
O21         Zr31   2.373       .  S
O22         Zr31   2.378       .  S
O22          H47   0.962       .  S
C23         C377   1.494       .  S
C24         C349   1.498       .  S
C25         C419   1.502       .  S
O26          H62   0.990       .  S
O27          C29   1.283       .  A
O28          C29   1.286       .  A
C29         C394   1.481       .  S
O30         Zr31   2.436       .  S
O30          H59   0.990   1_554  S
Zr31         O34   2.433       .  S
Zr31        O467   2.442   1_455  S
Zr31         O36   2.442       .  S
O32          C37   1.290       .  A
O33          H50   0.990       .  S
O33          H65   0.990       .  S
O34          H51   0.990       .  S
O35        Zr463   2.440       .  S
O35          H55   0.990       .  S
O35          H64   0.989       .  S
O36          C37   1.286       .  A
C37         C363   1.524       .  S
O38          H57   0.990       .  S
O38          H61   0.990       .  S
O39          H53   0.990       .  S
O39          H60   0.989       .  S
O40          C44   1.292       .  A
O41          C44   1.282   1_556  A
O42          H52   0.989       .  S
O43          H56   0.990   1_556  S
C44         C408   1.498       .  S
Zr67         O68   2.439       .  S
Zr67         O69   2.451       .  S
Zr67         O70   2.456       .  S
Zr67         O73   2.441       .  S
Zr67         O75   2.382       .  S
Zr67         O76   2.383       .  S
Zr67         O77   2.408   1_556  S
Zr67         O78   2.413       .  S
O68         H124   0.990       .  S
O68         H132   0.990       .  S
O69          C89   1.287       .  A
O70          C91   1.288       .  A
O71         Zr81   2.426       .  S
O71          C90   1.283       .  A
O72         Zr80   2.421       .  S
O72          C91   1.281   1_554  A
O73          C90   1.287       .  A
O74         Zr82   2.437       .  S
O74          C89   1.285       .  A
O75         Zr80   2.390   1_556  S
O75         Zr82   2.371       .  S
O76         Zr81   2.386       .  S
O76         Zr82   2.372       .  S
O76         H111   0.965       .  S
O77         Zr80   2.395       .  S
O77         Zr97   2.397       .  S
O77         H114   0.967       .  S
O78         Zr81   2.391       .  S
O78         Zr97   2.400   1_556  S
Zr79        O104   2.438       .  S
Zr79         O98   2.452       .  S
Zr79        O106   2.469       .  S
Zr79         O94   2.465       .  S
Zr79         O85   2.412   1_554  S
Zr79         O86   2.419       .  S
Zr79         O87   2.385       .  S
Zr79         O88   2.388       .  S
Zr80         O99   2.438       .  S
Zr80        O524   2.433       .  S
Zr80         O93   2.408       .  S
Zr80         O86   2.400       .  S
Zr80         O87   2.391       .  S
Zr81         O83   2.434       .  S
Zr81        O105   2.438       .  S
Zr81        O107   2.426       .  S
Zr81         O85   2.392       .  S
Zr81         O88   2.392   1_556  S
Zr82        O108   2.434       .  S
Zr82        O109   2.436       .  S
Zr82        O516   2.439       .  S
Zr82         O85   2.408       .  S
Zr82         O86   2.396   1_556  S
O83         H120   0.990       .  S
O84        Zr514   2.436   1_455  S
O84         H115   0.990       .  S
O84         H129   0.990       .  S
O86         H112   0.968       .  S
O87         Zr97   2.370       .  S
O88         Zr97   2.377       .  S
O88         H113   0.968       .  S
C89         C293   1.520       .  S
C90         C324   1.482       .  S
C91         C405   1.482       .  S
O92        Zr512   2.433   1_455  S
O92         H128   0.990       .  S
O93          C95   1.281       .  A
O94          C95   1.290       .  A
C95         C307   1.493       .  S
O96         Zr97   2.434       .  S
O96         H125   0.990   1_554  S
Zr97        O100   2.435       .  S
Zr97        O101   2.437       .  S
Zr97        O102   2.438       .  S
O98         C103   1.287       .  A
O99         H116   0.990       .  S
O99         H131   0.990       .  S
O100        H117   0.989       .  S
O101        H121   0.990       .  S
O101        H130   0.990       .  S
O102        C103   1.285       .  A
C103        C338   1.495       .  S
O104        H123   0.990       .  S
O104        H127   0.990       .  S
O105        H119   0.990       .  S
O105        H126   0.990       .  S
O106        C110   1.292       .  A
O107        C110   1.284   1_556  A
O108        H118   0.990       .  S
O109        H122   0.990       .  S
C110        C422   1.501       .  S
Zr133       O134   2.438       .  S
Zr133       O135   2.461       .  S
Zr133       O136   2.472       .  S
Zr133       O139   2.447       .  S
Zr133       O141   2.380       .  S
Zr133       O142   2.385       .  S
Zr133       O143   2.417       .  S
Zr133       O144   2.421       .  S
O134        H190   0.990       .  S
O134        H198   0.990       .  S
O135        C155   1.289       .  A
O136        C157   1.292       .  A
O137       Zr147   2.431       .  S
O137        C156   1.284       .  A
O138       Zr146   2.438       .  S
O138        C157   1.285       .  A
O139        C156   1.288       .  A
O140       Zr148   2.438       .  S
O140        C155   1.285       .  A
O141       Zr146   2.398       .  S
O141       Zr148   2.378       .  S
O142       Zr147   2.387       .  S
O142       Zr148   2.370       .  S
O142        H177   0.967       .  S
O143       Zr146   2.396       .  S
O143       Zr163   2.411       .  S
O143        H180   0.965       .  S
O144       Zr147   2.388       .  S
O144       Zr163   2.406       .  S
Zr145       O170   2.438       .  S
Zr145       O164   2.447       .  S
Zr145       O172   2.461       .  S
Zr145       O160   2.455       .  S
Zr145       O151   2.409       .  S
Zr145       O152   2.413       .  S
Zr145       O153   2.386       .  S
Zr145       O154   2.387       .  S
Zr146       O165   2.435       .  S
Zr146       O158   2.434       .  S
Zr146       O159   2.425       .  S
Zr146       O152   2.402       .  S
Zr146       O153   2.389       .  S
Zr147       O171   2.435       .  S
Zr147       O581   2.434       .  S
Zr147       O173   2.436       .  S
Zr147       O151   2.394       .  S
Zr147       O154   2.389       .  S
Zr148       O174   2.434       .  S
Zr148       O175   2.436       .  S
Zr148       O150   2.439       .  S
Zr148       O151   2.404       .  S
Zr148       O152   2.391       .  S
O149       Zr579   2.434   1_455  S
O149        H186   0.990       .  S
O150        H181   0.990       .  S
O150        H195   0.990       .  S
O152        H178   0.967       .  S
O153       Zr163   2.370       .  S
O154       Zr163   2.373       .  S
O154        H179   0.967       .  S
C155        C380   1.522       .  S
C156        C352   1.485       .  S
C157        C279   1.500       .  S
O158        H194   0.990       .  S
O159        C161   1.285       .  A
O160        C161   1.288       .  A
C161        C391   1.497       .  S
O162       Zr163   2.436       .  S
O162        H191   0.990       .  S
Zr163       O166   2.438       .  S
Zr163       O599   2.442       .  S
Zr163       O168   2.448       .  S
O164        C169   1.286       .  A
O165        H182   0.990       .  S
O165        H197   0.989       .  S
O166        H183   0.990       .  S
O167       Zr595   2.436   1_455  S
O167        H187   0.990       .  S
O167        H196   0.990       .  S
O168        C169   1.286       .  A
C169        C366   1.494       .  S
O170        H189   0.990       .  S
O170        H193   0.990       .  S
O171        H185   0.990       .  S
O171        H192   0.990       .  S
O172        C176   1.291       .  A
O173        C176   1.285       .  A
O174        H184   0.990       .  S
O175        H188   0.990       .  S
C176        C265   1.501       .  S
Zr199       O200   2.436       .  S
Zr199       O201   2.437       .  S
Zr199       O202   2.470       .  S
Zr199       O205   2.461       .  S
Zr199       O207   2.388       .  S
Zr199       O208   2.386       .  S
Zr199       O209   2.412       .  S
Zr199       O210   2.411       .  S
O200        H256   0.990       .  S
O200        H264   0.989       .  S
O201        C221   1.284       .  A
O202        C223   1.292       .  A
O203       Zr213   2.428       .  S
O203        C222   1.284       .  A
O204       Zr212   2.438       .  S
O204        C223   1.286       .  A
O205        C222   1.290       .  A
O206       Zr214   2.445       .  S
O206        C221   1.287       .  A
O207       Zr212   2.396       .  S
O207       Zr214   2.377       .  S
O208       Zr213   2.385       .  S
O208       Zr214   2.372       .  S
O208        H243   0.964       .  S
O209       Zr212   2.400       .  S
O209       Zr229   2.404       .  S
O209        H246   0.965       .  S
O210       Zr213   2.395       .  S
O210       Zr229   2.404       .  S
Zr211       O236   2.437       .  S
Zr211       O230   2.449       .  S
Zr211       O238   2.453       .  S
Zr211       O226   2.434       .  S
Zr211       O217   2.400       .  S
Zr211       O218   2.420       .  S
Zr211       O219   2.382       .  S
Zr211       O220   2.376       .  S
Zr212       O231   2.436       .  S
Zr212       O656   2.435   1_455  S
Zr212       O225   2.441       .  S
Zr212       O218   2.400       .  S
Zr212       O219   2.393       .  S
Zr213       O215   2.434       .  S
Zr213       O237   2.439       .  S
Zr213       O239   2.429       .  S
Zr213       O217   2.388       .  S
Zr213       O220   2.391       .  S
Zr214       O240   2.435       .  S
Zr214       O241   2.435       .  S
Zr214       O648   2.438   1_455  S
Zr214       O217   2.397       .  S
Zr214       O218   2.405       .  S
O215        H252   0.990       .  S
O216       Zr646   2.440       .  S
O216        H247   0.990       .  S
O216        H261   0.990       .  S
O218        H244   0.965       .  S
O219       Zr229   2.370       .  S
O220       Zr229   2.380       .  S
O220        H245   0.966       .  S
C221        C296   1.489       .  S
C222        C321   1.506       .  S
C223        C268   1.502       .  S
O224       Zr644   2.434       .  S
O224        H260   0.989       .  S
O225        C227   1.286       .  A
O226        C227   1.284       .  A
C227        C310   1.483       .  S
O228       Zr229   2.438       .  S
O228        H257   0.990       .  S
Zr229       O232   2.436       .  S
Zr229       O233   2.438       .  S
Zr229       O234   2.445       .  S
O230        C235   1.286       .  A
O231        H248   0.990       .  S
O231        H263   0.990       .  S
O232        H249   0.990       .  S
O233        H253   0.990       .  S
O233        H262   0.989       .  S
O234        C235   1.287       .  A
C235        C335   1.518       .  S
O236        H255   0.990       .  S
O236        H259   0.990       .  S
O237        H251   0.990       .  S
O237        H258   0.990       .  S
O238        C242   1.288       .  A
O239        C242   1.283       .  A
O240        H250   0.989       .  S
O241        H254   0.990       .  S
C242        C282   1.493       .  S
C265        C266   1.415       .  A
C265        C270   1.417       .  A
C266        C699   1.418   1_545  A
C266        C271   1.450       .  S
C267        C268   1.417   1_655  A
C267        C698   1.419   1_565  A
C267        C274   1.451       .  S
C268        C269   1.415       .  A
C269        C702   1.418   1_565  A
C269        C272   1.450       .  S
C270        C701   1.417   1_545  A
C270        C273   1.451       .  S
C271        N278   1.157       .  T
C272        N277   1.157       .  T
C273        N275   1.157       .  T
C274        N276   1.157       .  T
C279        C280   1.415       .  A
C279        C284   1.418       .  A
C280        C281   1.418       .  A
C280        C285   1.450       .  S
C281        C282   1.415       .  A
C281        C288   1.451       .  S
C282        C283   1.411       .  A
C283        C284   1.416       .  A
C283        C286   1.452       .  S
C284        C287   1.449       .  S
C285        N292   1.157       .  T
C286        N291   1.158       .  T
C287        N289   1.157       .  T
C288        N290   1.157       .  T
C293        C294   1.425       .  A
C293        C298   1.428       .  A
C294        C727   1.413       .  A
C294        C299   1.452       .  S
C295        C296   1.409       .  A
C295        C726   1.412       .  A
C295        C302   1.453       .  S
C296        C297   1.409   1_455  A
C297        C730   1.419       .  A
C297        C300   1.451       .  S
C298        C729   1.422       .  A
C298        C301   1.451       .  S
C299        N306   1.157       .  T
C300        N305   1.157       .  T
C301        N303   1.158       .  T
C302        N304   1.157       .  T
C307        C312   1.416       .  A
C307        C740   1.418       .  A
C308        C309   1.409       .  A
C308        C739   1.418   1_455  A
C308        C313   1.452       .  S
C309        C310   1.409       .  A
C309        C316   1.452       .  S
C310        C743   1.412   1_455  A
C311        C312   1.414       .  A
C311        C742   1.411       .  A
C311        C314   1.451       .  S
C312        C315   1.449       .  S
C313        N320   1.157       .  T
C314        N319   1.157       .  T
C315        N317   1.157       .  T
C316        N318   1.157       .  T
C321        C322   1.422       .  A
C321        C326   1.422       .  A
C322        C323   1.418       .  A
C322        C327   1.449       .  S
C323        C324   1.410       .  A
C323        C330   1.451       .  S
C324        C325   1.407       .  A
C325        C326   1.410       .  A
C325        C328   1.452       .  S
C326        C329   1.451       .  S
C327        N334   1.157       .  T
C328        N333   1.157       .  T
C329        N331   1.157       .  T
C330        N332   1.157       .  T
C335        C336   1.422       .  A
C335        C340   1.428       .  A
C336        C337   1.413       .  A
C336        C341   1.449       .  S
C337        C338   1.409       .  A
C337        C344   1.453       .  S
C338        C339   1.411       .  A
C339        C340   1.423       .  A
C339        C342   1.450       .  S
C340        C343   1.451       .  S
C341        N348   1.157       .  T
C342        N347   1.157       .  T
C343        N345   1.158       .  T
C344        N346   1.157       .  T
C349        C354   1.421       .  A
C349        C782   1.419   1_455  A
C350        C351   1.412       .  A
C350        C781   1.419       .  A
C350        C355   1.451       .  S
C351        C352   1.410       .  A
C351        C358   1.451       .  S
C352        C785   1.411       .  A
C353        C354   1.417       .  A
C353        C784   1.409   1_455  A
C353        C356   1.451       .  S
C354        C357   1.450       .  S
C355        N362   1.157       .  T
C356        N361   1.157       .  T
C357        N359   1.158       .  T
C358        N360   1.157       .  T
C363        C368   1.428       .  A
C363        C796   1.427   1_455  A
C364        C365   1.415       .  A
C364        C795   1.423       .  A
C364        C369   1.450       .  S
C365        C366   1.409       .  A
C365        C372   1.453       .  S
C366        C799   1.411       .  A
C367        C368   1.422       .  A
C367        C798   1.408   1_455  A
C367        C370   1.452       .  S
C368        C371   1.449       .  S
C369        N376   1.157       .  T
C370        N375   1.158       .  T
C371        N373   1.157       .  T
C372        N374   1.157       .  T
C377        C378   1.408       .  A
C377        C382   1.410       .  A
C378        C379   1.421       .  A
C378        C383   1.451       .  S
C379        C380   1.427       .  A
C379        C386   1.450       .  S
C380        C381   1.426       .  A
C381        C382   1.417       .  A
C381        C384   1.452       .  S
C382        C385   1.453       .  S
C383        N390   1.157       .  T
C384        N389   1.157       .  T
C385        N387   1.157       .  T
C386        N388   1.157       .  T
C391        C392   1.419       .  A
C391        C396   1.418       .  A
C392        C393   1.416       .  A
C392        C397   1.450       .  S
C393        C394   1.411       .  A
C393        C400   1.451       .  S
C394        C395   1.408       .  A
C395        C396   1.408       .  A
C395        C398   1.451       .  S
C396        C399   1.452       .  S
C397        N404   1.157       .  T
C398        N403   1.157       .  T
C399        N401   1.157       .  T
C400        N402   1.157       .  T
C405        C406   1.411   1_556  A
C405        C842   1.410       .  A
C406        C407   1.413   1_565  A
C406        C411   1.452       .  S
C407        C840   1.413       .  A
C407        C414   1.450       .  S
C408        C409   1.420   1_554  A
C408        C839   1.414   1_455  A
C409        C410   1.415   1_545  A
C409        C412   1.451       .  S
C410        C837   1.410   1_455  A
C410        C413   1.452       .  S
C411        N418   1.157       .  T
C412        N417   1.157       .  T
C413        N415   1.157       .  T
C414        N416   1.157       .  T
C419        C420   1.416       .  A
C419        C424   1.416   1_556  A
C420        C421   1.419       .  A
C420        C425   1.450       .  S
C421        C422   1.417   1_556  A
C421        C428   1.452       .  S
C422        C423   1.414       .  A
C423        C424   1.417       .  A
C423        C426   1.450       .  S
C424        C427   1.451       .  S
C425        N432   1.157       .  T
C426        N431   1.157       .  T
C427        N429   1.157       .  T
C428        N430   1.157       .  T
Zr433       O434   2.436       .  S
Zr433       O435   2.444       .  S
Zr433       O436   2.477       .  S
Zr433       O439   2.461       .  S
Zr433       O441   2.386       .  S
Zr433       O442   2.388       .  S
Zr433       O443   2.417   1_556  S
Zr433       O444   2.409       .  S
O434        H490   0.990       .  S
O434        H498   0.989       .  S
O435        C455   1.285       .  A
O436        C457   1.293       .  A
O437       Zr447   2.420       .  S
O437        C456   1.283       .  A
O438       Zr446   2.427       .  S
O438        C457   1.283   1_554  A
O439        C456   1.290       .  A
O440       Zr448   2.441       .  S
O440        C455   1.285       .  A
O441       Zr446   2.391   1_556  S
O441       Zr448   2.377       .  S
O442       Zr447   2.389       .  S
O442       Zr448   2.376       .  S
O442        H477   0.966       .  S
O443       Zr446   2.400       .  S
O443       Zr463   2.410       .  S
O443        H480   0.965       .  S
O444       Zr447   2.387       .  S
O444       Zr463   2.396   1_556  S
Zr445       O470   2.438       .  S
Zr445       O464   2.460       .  S
Zr445       O472   2.467       .  S
Zr445       O460   2.453       .  S
Zr445       O451   2.405   1_554  S
Zr445       O452   2.420       .  S
Zr445       O453   2.384       .  S
Zr445       O454   2.380       .  S
Zr446       O465   2.438       .  S
Zr446       O458   2.434       .  S
Zr446       O459   2.416       .  S
Zr446       O452   2.397       .  S
Zr446       O453   2.393       .  S
Zr447       O471   2.438       .  S
Zr447       O473   2.416       .  S
Zr447       O451   2.391       .  S
Zr447       O454   2.388   1_556  S
Zr448       O474   2.435       .  S
Zr448       O475   2.440       .  S
Zr448       O450   2.440       .  S
Zr448       O451   2.401       .  S
Zr448       O452   2.406   1_556  S
O449        H486   0.990       .  S
O450        H481   0.990       .  S
O450        H495   0.990   1_556  S
O452        H478   0.965       .  S
O453       Zr463   2.373       .  S
O454       Zr463   2.379       .  S
O454        H479   0.962       .  S
C455        C809   1.489       .  S
C456        C781   1.500       .  S
C457        C851   1.503       .  S
O458        H494   0.990       .  S
O459        C461   1.281       .  A
O460        C461   1.287       .  A
C461        C826   1.480       .  S
O462       Zr463   2.436       .  S
O462        H491   0.990       .  S
Zr463       O466   2.434       .  S
Zr463       O468   2.441       .  S
O464        C469   1.290       .  A
O465        H482   0.990       .  S
O465        H497   0.990       .  S
O466        H483   0.990       .  S
O467        H487   0.990       .  S
O467        H496   0.989       .  S
O468        C469   1.286       .  A
C469        C795   1.518       .  S
O470        H489   0.990       .  S
O470        H493   0.990       .  S
O471        H485   0.990       .  S
O471        H492   0.989       .  S
O472        C476   1.291       .  A
O473        C476   1.281   1_556  A
O474        H484   0.990       .  S
O475        H488   0.990   1_556  S
C476        C840   1.488       .  S
Zr499       O500   2.439       .  S
Zr499       O501   2.446       .  S
Zr499       O502   2.469       .  S
Zr499       O505   2.458       .  S
Zr499       O507   2.385       .  S
Zr499       O508   2.386       .  S
Zr499       O509   2.414   1_556  S
Zr499       O510   2.419       .  S
O500        H556   0.990       .  S
O500        H564   0.990       .  S
O501        C521   1.286       .  A
O502        C523   1.291       .  A
O503       Zr513   2.433       .  S
O503        C522   1.285       .  A
O504       Zr512   2.422       .  S
O504        C523   1.282   1_554  A
O505        C522   1.290       .  A
O506       Zr514   2.432       .  S
O506        C521   1.284       .  A
O507       Zr512   2.390   1_556  S
O507       Zr514   2.377       .  S
O508       Zr513   2.386       .  S
O508       Zr514   2.369       .  S
O508        H543   0.964       .  S
O509       Zr512   2.395       .  S
O509       Zr529   2.394       .  S
O509        H546   0.965       .  S
O510       Zr513   2.391       .  S
O510       Zr529   2.401   1_556  S
Zr511       O536   2.437       .  S
Zr511       O530   2.444       .  S
Zr511       O538   2.472       .  S
Zr511       O526   2.470       .  S
Zr511       O517   2.409   1_554  S
Zr511       O518   2.415       .  S
Zr511       O519   2.384       .  S
Zr511       O520   2.392       .  S
Zr512       O531   2.438       .  S
Zr512       O525   2.406       .  S
Zr512       O518   2.397       .  S
Zr512       O519   2.386       .  S
Zr513       O515   2.434       .  S
Zr513       O537   2.438       .  S
Zr513       O539   2.431       .  S
Zr513       O517   2.389       .  S
Zr513       O520   2.390   1_556  S
Zr514       O540   2.434       .  S
Zr514       O541   2.436       .  S
Zr514       O517   2.401       .  S
Zr514       O518   2.396   1_556  S
O515        H552   0.990       .  S
O516        H547   0.990       .  S
O516        H561   0.990       .  S
O518        H544   0.967       .  S
O519       Zr529   2.370       .  S
O520       Zr529   2.376       .  S
O520        H545   0.965       .  S
C521        C725   1.513       .  S
C522        C756   1.491       .  S
C523        C837   1.494       .  S
O524        H560   0.990       .  S
O525        C527   1.281       .  A
O526        C527   1.291       .  A
C527        C739   1.497       .  S
O528       Zr529   2.438       .  S
O528        H557   0.990   1_554  S
Zr529       O532   2.436       .  S
Zr529       O533   2.438       .  S
Zr529       O534   2.437       .  S
O530        C535   1.286       .  A
O531        H548   0.990       .  S
O531        H563   0.989       .  S
O532        H549   0.990       .  S
O533        H553   0.990       .  S
O533        H562   0.990       .  S
O534        C535   1.286       .  A
C535        C770   1.495       .  S
O536        H555   0.990       .  S
O536        H559   0.990       .  S
O537        H551   0.990       .  S
O537        H558   0.990       .  S
O538        C542   1.293       .  A
O539        C542   1.285   1_556  A
O540        H550   0.990       .  S
O541        H554   0.990       .  S
C542        C854   1.503       .  S
Zr565       O566   2.438       .  S
Zr565       O567   2.453       .  S
Zr565       O568   2.464       .  S
Zr565       O571   2.435       .  S
Zr565       O573   2.379       .  S
Zr565       O574   2.385       .  S
Zr565       O575   2.405       .  S
Zr565       O576   2.412       .  S
O566        H622   0.990       .  S
O566        H630   0.990       .  S
O567        C587   1.288       .  A
O568        C589   1.290       .  A
O569       Zr579   2.429       .  S
O569        C588   1.284       .  A
O570       Zr578   2.428       .  S
O570        C589   1.283       .  A
O571        C588   1.285       .  A
O572       Zr580   2.442       .  S
O572        C587   1.286       .  A
O573       Zr578   2.391       .  S
O573       Zr580   2.375       .  S
O574       Zr579   2.386       .  S
O574       Zr580   2.369       .  S
O574        H609   0.964       .  S
O575       Zr578   2.395       .  S
O575       Zr595   2.395       .  S
O575        H612   0.964       .  S
O576       Zr579   2.393       .  S
O576       Zr595   2.398       .  S
Zr577       O602   2.439       .  S
Zr577       O596   2.448       .  S
Zr577       O604   2.460       .  S
Zr577       O592   2.449       .  S
Zr577       O583   2.405       .  S
Zr577       O584   2.416       .  S
Zr577       O585   2.382       .  S
Zr577       O586   2.385       .  S
Zr578       O597   2.436       .  S
Zr578       O590   2.434       .  S
Zr578       O591   2.418       .  S
Zr578       O584   2.401       .  S
Zr578       O585   2.386       .  S
Zr579       O603   2.438       .  S
Zr579       O605   2.437       .  S
Zr579       O583   2.390       .  S
Zr579       O586   2.392       .  S
Zr580       O606   2.437       .  S
Zr580       O607   2.438       .  S
Zr580       O582   2.439       .  S
Zr580       O583   2.405       .  S
Zr580       O584   2.400       .  S
O581        H618   0.990       .  S
O582        H613   0.989       .  S
O582        H627   0.990       .  S
O584        H610   0.967       .  S
O585       Zr595   2.367       .  S
O586       Zr595   2.378       .  S
O586        H611   0.968       .  S
C587        C812   1.515       .  S
C588        C784   1.478       .  S
C589        C711   1.494       .  S
O590        H626   0.990       .  S
O591        C593   1.284       .  A
O592        C593   1.287       .  A
C593        C823   1.493       .  S
O594       Zr595   2.434       .  S
O594        H623   0.990       .  S
Zr595       O598   2.436       .  S
Zr595       O600   2.434       .  S
O596        C601   1.287       .  A
O597        H614   0.990       .  S
O597        H629   0.989       .  S
O598        H615   0.990       .  S
O599        H619   0.990       .  S
O599        H628   0.989       .  S
O600        C601   1.284       .  A
C601        C798   1.492       .  S
O602        H621   0.990       .  S
O602        H625   0.990       .  S
O603        H617   0.990       .  S
O603        H624   0.990       .  S
O604        C608   1.290       .  A
O605        C608   1.285       .  A
O606        H616   0.990       .  S
O607        H620   0.990       .  S
C608        C697   1.500       .  S
Zr631       O632   2.437       .  S
Zr631       O633   2.457       .  S
Zr631       O634   2.464       .  S
Zr631       O637   2.459       .  S
Zr631       O639   2.387       .  S
Zr631       O640   2.383       .  S
Zr631       O641   2.417       .  S
Zr631       O642   2.410       .  S
O632        H688   0.990       .  S
O632        H696   0.989       .  S
O633        C653   1.289       .  A
O634        C655   1.291       .  A
O635       Zr645   2.426       .  S
O635        C654   1.284       .  A
O636       Zr644   2.437       .  S
O636        C655   1.286       .  A
O637        C654   1.290       .  A
O638       Zr646   2.438       .  S
O638        C653   1.285       .  A
O639       Zr644   2.393       .  S
O639       Zr646   2.372       .  S
O640       Zr645   2.384       .  S
O640       Zr646   2.373       .  S
O640        H675   0.965       .  S
O641       Zr644   2.397       .  S
O641       Zr661   2.401       .  S
O641        H678   0.965       .  S
O642       Zr645   2.390       .  S
O642       Zr661   2.402       .  S
Zr643       O668   2.438       .  S
Zr643       O662   2.463       .  S
Zr643       O670   2.458       .  S
Zr643       O658   2.429       .  S
Zr643       O649   2.403       .  S
Zr643       O650   2.425       .  S
Zr643       O651   2.385       .  S
Zr643       O652   2.378       .  S
Zr644       O663   2.438       .  S
Zr644       O657   2.436       .  S
Zr644       O650   2.397       .  S
Zr644       O651   2.391       .  S
Zr645       O647   2.433       .  S
Zr645       O669   2.438       .  S
Zr645       O671   2.420       .  S
Zr645       O649   2.391       .  S
Zr645       O652   2.391       .  S
Zr646       O672   2.434       .  S
Zr646       O673   2.436       .  S
Zr646       O649   2.403       .  S
Zr646       O650   2.405       .  S
O647        H684   0.990       .  S
O648        H679   0.990       .  S
O648        H693   0.990       .  S
O650        H676   0.966       .  S
O651       Zr661   2.368       .  S
O652       Zr661   2.378       .  S
O652        H677   0.964       .  S
C653        C728   1.495       .  S
C654        C753   1.503       .  S
C655        C700   1.501       .  S
O656        H692   0.990       .  S
O657        C659   1.285       .  A
O658        C659   1.283       .  A
C659        C742   1.478       .  S
O660       Zr661   2.435       .  S
O660        H689   0.990       .  S
Zr661       O664   2.435       .  S
Zr661       O665   2.439       .  S
Zr661       O666   2.441       .  S
O662        C667   1.289       .  A
O663        H680   0.990       .  S
O663        H695   0.990       .  S
O664        H681   0.990       .  S
O665        H685   0.990       .  S
O665        H694   0.990       .  S
O666        C667   1.285       .  A
C667        C767   1.531       .  S
O668        H687   0.990       .  S
O668        H691   0.990       .  S
O669        H683   0.990       .  S
O669        H690   0.990       .  S
O670        C674   1.290       .  A
O671        C674   1.282       .  A
O672        H682   0.989       .  S
O673        H686   0.990       .  S
C674        C714   1.492       .  S
C697        C698   1.414       .  A
C697        C702   1.416   1_655  A
C698        C703   1.450       .  S
C699        C700   1.417       .  A
C699        C706   1.451       .  S
C700        C701   1.415       .  A
C701        C704   1.450       .  S
C702        C705   1.451       .  S
C703        N710   1.157       .  T
C704        N709   1.157       .  T
C705        N707   1.157       .  T
C706        N708   1.157       .  T
C711        C712   1.413       .  A
C711        C716   1.417       .  A
C712        C713   1.416       .  A
C712        C717   1.451       .  S
C713        C714   1.417       .  A
C713        C720   1.451       .  S
C714        C715   1.411       .  A
C715        C716   1.414       .  A
C715        C718   1.452       .  S
C716        C719   1.450       .  S
C717        N724   1.158       .  T
C718        N723   1.157       .  T
C719        N721   1.157       .  T
C720        N722   1.157       .  T
C725        C726   1.423   1_655  A
C725        C730   1.426       .  A
C726        C731   1.451       .  S
C727        C728   1.410       .  A
C727        C734   1.453       .  S
C728        C729   1.410       .  A
C729        C732   1.451       .  S
C730        C733   1.451       .  S
C731        N738   1.157       .  T
C732        N737   1.157       .  T
C733        N735   1.158       .  T
C734        N736   1.157       .  T
C739        C744   1.416       .  A
C740        C741   1.408       .  A
C740        C745   1.452       .  S
C741        C742   1.408       .  A
C741        C748   1.452       .  S
C743        C744   1.416       .  A
C743        C746   1.450       .  S
C744        C747   1.449       .  S
C745        N752   1.157       .  T
C746        N751   1.157       .  T
C747        N749   1.157       .  T
C748        N750   1.157       .  T
C753        C754   1.417       .  A
C753        C758   1.419       .  A
C754        C755   1.417       .  A
C754        C759   1.449       .  S
C755        C756   1.412       .  A
C755        C762   1.451       .  S
C756        C757   1.411       .  A
C757        C758   1.414       .  A
C757        C760   1.451       .  S
C758        C761   1.452       .  S
C759        N766   1.157       .  T
C760        N765   1.157       .  T
C761        N763   1.157       .  T
C762        N764   1.157       .  T
C767        C768   1.431       .  A
C767        C772   1.432       .  A
C768        C769   1.414       .  A
C768        C773   1.451       .  S
C769        C770   1.406       .  A
C769        C776   1.455       .  S
C770        C771   1.409       .  A
C771        C772   1.424       .  A
C771        C774   1.452       .  S
C772        C775   1.449       .  S
C773        N780   1.157       .  T
C774        N779   1.158       .  T
C775        N777   1.157       .  T
C776        N778   1.157       .  T
C781        C786   1.417       .  A
C782        C783   1.406       .  A
C782        C787   1.451       .  S
C783        C784   1.406       .  A
C783        C790   1.453       .  S
C785        C786   1.416       .  A
C785        C788   1.450       .  S
C786        C789   1.449       .  S
C787        N794   1.157       .  T
C788        N793   1.157       .  T
C789        N791   1.157       .  T
C790        N792   1.157       .  T
C795        C800   1.425       .  A
C796        C797   1.416       .  A
C796        C801   1.450       .  S
C797        C798   1.408       .  A
C797        C804   1.454       .  S
C799        C800   1.421       .  A
C799        C802   1.450       .  S
C800        C803   1.450       .  S
C801        N808   1.157       .  T
C802        N807   1.157       .  T
C803        N805   1.157       .  T
C804        N806   1.158       .  T
C809        C810   1.410       .  A
C809        C814   1.409       .  A
C810        C811   1.421       .  A
C810        C815   1.451       .  S
C811        C812   1.427       .  A
C811        C818   1.450       .  S
C812        C813   1.422       .  A
C813        C814   1.412       .  A
C813        C816   1.451       .  S
C814        C817   1.453       .  S
C815        N822   1.158       .  T
C816        N821   1.157       .  T
C817        N819   1.157       .  T
C818        N820   1.158       .  T
C823        C824   1.417       .  A
C823        C828   1.416       .  A
C824        C825   1.416       .  A
C824        C829   1.450       .  S
C825        C826   1.412       .  A
C825        C832   1.451       .  S
C826        C827   1.408       .  A
C827        C828   1.406       .  A
C827        C830   1.451       .  S
C828        C831   1.451       .  S
C829        N836   1.157       .  T
C830        N835   1.157       .  T
C831        N833   1.157       .  T
C832        N834   1.157       .  T
C837        C838   1.417   1_556  A
C838        C839   1.416   1_565  A
C838        C843   1.451       .  S
C839        C846   1.452       .  S
C840        C841   1.416   1_554  A
C841        C842   1.415   1_545  A
C841        C844   1.450       .  S
C842        C845   1.451       .  S
C843        N850   1.157       .  T
C844        N849   1.157       .  T
C845        N847   1.158       .  T
C846        N848   1.158       .  T
C851        C852   1.414       .  A
C851        C856   1.419       .  A
C852        C853   1.419       .  A
C852        C857   1.450       .  S
C853        C854   1.417   1_556  A
C853        C860   1.451       .  S
C854        C855   1.415       .  A
C855        C856   1.419   1_554  A
C855        C858   1.451       .  S
C856        C859   1.451   1_556  S
C857        N864   1.157       .  T
C858        N863   1.157       .  T
C859        N861   1.157       .  T
C860        N862   1.157       .  T
