geometry optimzed in LAMMPS
_audit_creation_date              2020-12-01 
_audit_creation_method            'lammps2cif' 
_symmetry_space_group_name_H-M    'P1' 
_symmetry_Int_Tables_number       1 
_symmetry_cell_setting            triclinic 
loop_ 
_symmetry_equiv_pos_as_xyz 
  x,y,z 
_cell_length_a                    45.23616142 
_cell_length_b                    45.24607720949044 
_cell_length_c                    45.295193508908284 
_cell_angle_alpha                 90.10107131318202 
_cell_angle_beta                  89.9701181667951 
_cell_angle_gamma                 90.06315831440781 
loop_ 
_atom_site_label 
_atom_site_type_symbol 
_atom_site_fract_x 
_atom_site_fract_y 
_atom_site_fract_z 
_atom_site_charge 
N1          N  0.06096314  0.48629637  0.21409462    -0.07000
N2          N  0.07809531  0.47577387  0.19297937    -0.59100
N3          N  0.06096165  0.01625265  0.28134375    -0.06700
N4          N  0.07858106  0.02670932  0.30210643    -0.61300
N5          N  0.06085154  0.48718958  0.28176858    -0.06300
N6          N  0.07833681  0.47729007  0.30286572    -0.59100
N7          N  0.06088795  0.01534901  0.21362231    -0.06000
N8          N  0.07792692  0.02520052  0.19212649    -0.61600
C9          C  0.08846933  0.00027376  0.17936918     0.95100
C10         C  0.08920182  0.50218241  0.31546072     0.94900
N11         N  0.48245613  0.06548399  0.28063190    -0.07200
N12         N  0.47222100  0.08258808  0.30193527    -0.59700
N13         N  0.01181328  0.06461157  0.21294289    -0.05300
N14         N  0.02221877  0.08161090  0.19168163    -0.61000
N15         N  0.48273650  0.06469726  0.21278604    -0.07200
N16         N  0.47279480  0.08179261  0.19138788    -0.60000
N17         N  0.01152839  0.06542792  0.28074013    -0.05000
N18         N  0.02165608  0.08251384  0.30210560    -0.61100
Mn19       Mn  0.03691179  0.04105964  0.24716730     1.18400
C20         C  0.49691381  0.09301663  0.31524120     0.97200
C21         C  0.99766831  0.09212262  0.17829171     0.97900
N22         N  0.01148669  0.43796766  0.28213420    -0.07300
N23         N  0.02159617  0.42082419  0.30338828    -0.63600
N24         N  0.48260919  0.43740018  0.21409716    -0.06100
N25         N  0.47257845  0.42042784  0.19257175    -0.64200
N26         N  0.01167646  0.43734286  0.21436948    -0.06800
N27         N  0.02202005  0.42029722  0.19310477    -0.63800
N28         N  0.48242130  0.43786048  0.28196759    -0.05700
N29         N  0.47216640  0.42061366  0.30310308    -0.64500
Mn30       Mn  0.03684928  0.46155960  0.24814507     1.10700
C31         C  0.49684035  0.41022480  0.31640954     0.98500
C32         C  0.99742561  0.40991988  0.17962139     0.98500
N33         N  0.43327209  0.01535270  0.21333103    -0.06800
N34         N  0.41613041  0.02515918  0.19191862    -0.62100
N35         N  0.43336651  0.48716927  0.28154229    -0.06100
N36         N  0.41674484  0.47712538  0.30326806    -0.58900
N37         N  0.43323971  0.01623556  0.28127804    -0.07400
N38         N  0.41650187  0.02653989  0.30286981    -0.61700
N39         N  0.43326397  0.48629483  0.21372753    -0.06400
N40         N  0.41611542  0.47574327  0.19262118    -0.58900
Mn41       Mn  0.45724304  0.04112099  0.24696061     1.20200
Mn42       Mn  0.45726209  0.46154209  0.24783699     1.10100
Cl43       Cl  0.99706598  0.00133205  0.24753164    -0.86900
C44         C  0.40564357  0.00021519  0.17908022     0.95500
C45         C  0.40640759  0.50187866  0.31650072     0.95300
N46         N  0.48245398  0.21789629  0.06155513    -0.07000
N47         N  0.47232441  0.19647461  0.07851166    -0.59100
N48         N  0.01142380  0.28586876  0.06100796    -0.06700
N49         N  0.02159269  0.30731198  0.07799411    -0.61300
N50         N  0.48235930  0.28583575  0.06108327    -0.06300
N51         N  0.47214734  0.30728929  0.07800791    -0.59100
N52         N  0.01151099  0.21792167  0.06146209    -0.06000
N53         N  0.02175562  0.19651395  0.07836802    -0.61600
C54         C  0.99705240  0.18321105  0.08880251     0.95100
C55         C  0.49685089  0.32060807  0.08834166     0.94900
N56         N  0.06044336  0.28494680  0.48244185    -0.07200
N57         N  0.07831605  0.30557527  0.47212176    -0.59700
N58         N  0.06026869  0.21746102  0.01197970    -0.05300
N59         N  0.07725482  0.19608890  0.02218489    -0.61000
N60         N  0.05999701  0.21715012  0.48294598    -0.07200
N61         N  0.07678510  0.19554930  0.47282395    -0.60000
N62         N  0.06046565  0.28519848  0.01147989    -0.05000
N63         N  0.07827766  0.30600443  0.02149447    -0.61100
Mn64       Mn  0.03656140  0.25166601  0.03712879     1.18400
C65         C  0.08918377  0.31865017  0.49674492     0.97200
C66         C  0.08734181  0.18248235  0.49751957     0.97900
N67         N  0.43302562  0.28535062  0.01250524    -0.07300
N68         N  0.41594058  0.30654480  0.02289966    -0.63600
N69         N  0.43264682  0.21764587  0.48378511    -0.06100
N70         N  0.41532187  0.19641268  0.47382322    -0.64200
N71         N  0.43301146  0.21766512  0.01280629    -0.06800
N72         N  0.41597159  0.19641153  0.02320786    -0.63800
N73         N  0.43283628  0.28539733  0.48347642    -0.05700
N74         N  0.41561119  0.30669196  0.47351837    -0.64500
Mn75       Mn  0.45709899  0.25166943  0.03762743     1.10700
C76         C  0.40527466  0.31975865  0.49837523     0.98500
C77         C  0.40518121  0.18324037  0.49863806     0.98500
N78         N  0.01041699  0.21687992  0.43411509    -0.06800
N79         N  0.02041372  0.19539409  0.41710873    -0.62100
N80         N  0.48158630  0.28481162  0.43373121    -0.06100
N81         N  0.47124939  0.30586908  0.41648048    -0.58900
N82         N  0.01065955  0.28482135  0.43349454    -0.07400
N83         N  0.02068588  0.30595273  0.41608019    -0.61700
N84         N  0.48134923  0.21697644  0.43426420    -0.06400
N85         N  0.47098380  0.19555472  0.41734617    -0.58900
Mn86       Mn  0.03602349  0.25097643  0.45757881     1.20200
Mn87       Mn  0.45645209  0.25123832  0.45816496     1.10100
Cl88       Cl  0.49654593  0.25144358  0.49761061    -0.86900
C89         C  0.99559707  0.18216201  0.40685754     0.95500
C90         C  0.49585554  0.31898152  0.40566512     0.95300
N91         N  0.28141304  0.43820873  0.48320588    -0.07000
N92         N  0.30284313  0.42121692  0.47311230    -0.59100
N93         N  0.21331769  0.43732753  0.01146415    -0.06700
N94         N  0.19256226  0.41931174  0.02122838    -0.61300
N95         N  0.21376801  0.43740580  0.48243181    -0.06300
N96         N  0.19335083  0.41943537  0.47185744    -0.59100
N97         N  0.28096933  0.43786787  0.01223206    -0.06000
N98         N  0.30206815  0.42059781  0.02248383    -0.61600
C99         C  0.31564834  0.41046638  0.49783917     0.95100
C100        C  0.18019711  0.40836995  0.49628776     0.94900
N101        N  0.21252735  0.01569460  0.06116671    -0.07200
N102        N  0.19099503  0.02584425  0.07800863    -0.59700
N103        N  0.28034474  0.48667053  0.06167666    -0.05300
N104        N  0.30167207  0.47638346  0.07865907    -0.61000
N105        N  0.28044047  0.01573061  0.06177829    -0.07200
N106        N  0.30184183  0.02580640  0.07884591    -0.60000
N107        N  0.21246747  0.48663144  0.06095623    -0.05000
N108        N  0.19093417  0.47641097  0.07774726    -0.61100
Mn109      Mn  0.24670662  0.46150055  0.03725682     1.18400
C110        C  0.17761292  0.00111028  0.08813550     0.97200
C111        C  0.31501271  0.50103826  0.08915529     0.97900
N112        N  0.21366736  0.48703119  0.43374227    -0.07300
N113        N  0.19256958  0.47677544  0.41638781    -0.63600
N114        N  0.28142150  0.01669970  0.43453156    -0.06100
N115        N  0.30301855  0.02714335  0.41791476    -0.64200
N116        N  0.28169459  0.48764386  0.43440580    -0.06800
N117        N  0.30346164  0.47773135  0.41769725    -0.63800
N118        N  0.21346376  0.01609080  0.43394627    -0.05700
N119        N  0.19230381  0.02620604  0.41667467    -0.64500
Mn120      Mn  0.24764111  0.46197573  0.45779175     1.10700
C121        C  0.17932404  0.00145222  0.40596128     0.98500
C122        C  0.31669779  0.50260012  0.40761096     0.98500
N123        N  0.28063888  0.06527697  0.01287233    -0.06800
N124        N  0.30196929  0.08245052  0.02302012    -0.62100
N125        N  0.21261008  0.06505914  0.48362431    -0.06100
N126        N  0.19101006  0.08188808  0.47360568    -0.58900
N127        N  0.21269199  0.06502645  0.01265666    -0.07400
N128        N  0.19116435  0.08178938  0.02297024    -0.61700
N129        N  0.28046955  0.06544043  0.48384888    -0.06400
N130        N  0.30160259  0.08268855  0.47363976    -0.58900
Mn131      Mn  0.24663427  0.04109429  0.03780391     1.20200
Mn132      Mn  0.24693709  0.04147361  0.45834862     1.10100
Cl133      Cl  0.24695432  0.50150473  0.49780655    -0.86900
C134        C  0.31491176  0.09310887  0.49825644     0.95500
C135        C  0.17770987  0.09211698  0.49839707     0.95300
C136        C  0.34776989  0.37472962  0.02455462    -0.22200
C137        C  0.33974244  0.38845837  0.49797389    -0.10300
C138        C  0.35413404  0.38007694  0.47170903     0.28600
C139        C  0.37578780  0.35809536  0.47214444    -0.22200
C140        C  0.38342212  0.34399084  0.49864256    -0.10300
C141        C  0.36926648  0.35262087  0.02496508     0.28600
F142        F  0.37543601  0.33917514  0.05100734    -0.20800
H143        H  0.33692464  0.38062808  0.04504932     0.17000
H144        H  0.38639086  0.35190983  0.45160621     0.17000
F145        F  0.34720156  0.39285423  0.44552790    -0.20800
C146        C  0.36929218  0.15110308  0.47219299    -0.22200
C147        C  0.38324567  0.15908408  0.49869468    -0.10300
C148        C  0.37528774  0.14446862  0.02493123     0.28600
C149        C  0.35336989  0.12267780  0.02454003    -0.22200
C150        C  0.33904270  0.11510029  0.49809199    -0.10300
C151        C  0.34736822  0.12942715  0.47180019     0.28600
F152        F  0.33385778  0.12318894  0.44576980    -0.20800
H153        H  0.37490890  0.16209234  0.45170685     0.17000
H154        H  0.34746573  0.11186257  0.04503860     0.17000
F155        F  0.38852188  0.15121824  0.05097542    -0.20800
C156        C  0.12499317  0.35089511  0.46991795    -0.22200
C157        C  0.11186092  0.34219248  0.49663007    -0.10300
C158        C  0.12117120  0.35566555  0.52307620     0.28600
C159        C  0.14326545  0.37722271  0.52266190    -0.22200
C160        C  0.15648193  0.38586838  0.49598844    -0.10300
C161        C  0.14711117  0.37248095  0.46950410     0.28600
F162        F  0.15948851  0.37985624  0.44322205    -0.20800
H163        H  0.11835520  0.34077196  0.44926886     0.17000
H164        H  0.15003040  0.38717112  0.54335550     0.17000
F165        F  0.10897397  0.34815341  0.54940292    -0.20800
C166        C  0.12020595  0.14740550  0.52453889    -0.22200
C167        C  0.10894807  0.15790321  0.49763004    -0.10300
C168        C  0.11935472  0.14539487  0.47111066     0.28600
C169        C  0.14122446  0.12359510  0.47163717    -0.22200
C170        C  0.15311260  0.11371427  0.49850075    -0.10300
C171        C  0.14201129  0.12552967  0.52507305     0.28600
F172        F  0.15253680  0.11647540  0.55161331    -0.20800
H173        H  0.11248700  0.15648690  0.04529137     0.17000
H174        H  0.14916833  0.11474571  0.45086984     0.17000
F175        F  0.10881644  0.15444869  0.44458045    -0.20800
C176        C  0.37478882  0.02886319  0.35295709    -0.22200
C177        C  0.38508020  0.50195149  0.34135651    -0.10300
C178        C  0.37395091  0.47534116  0.35303430     0.28600
C179        C  0.35231968  0.47582328  0.37507407    -0.22200
C180        C  0.34130700  0.50272292  0.38599143    -0.10000
C181        C  0.35316901  0.02933787  0.37506309     0.28600
F182        F  0.34358107  0.05587565  0.38525467    -0.20800
H183        H  0.38312055  0.04966545  0.34457001     0.17000
H184        H  0.34376850  0.45500129  0.38319064     0.17000
F185        F  0.38341143  0.44876536  0.34281353    -0.20800
C186        C  0.11904574  0.47581468  0.35354594    -0.22200
C187        C  0.11140692  0.50236636  0.33945115    -0.10300
C188        C  0.12574308  0.02864904  0.34801034     0.28600
C189        C  0.14733716  0.02816918  0.37004301    -0.22200
C190        C  0.15528850  0.00156194  0.38382732    -0.10300
C191        C  0.14074718  0.47532300  0.37551188     0.28600
F192        F  0.14742134  0.44916189  0.38851055    -0.20800
H193        H  0.10829779  0.45528302  0.34746296     0.17000
H194        H  0.15827288  0.04866611  0.37590058     0.17000
F195        F  0.11954184  0.05474897  0.33466581    -0.20800
C196        C  0.11796856  0.02671421  0.14114433    -0.22200
C197        C  0.11006470  0.00004770  0.15488197    -0.10300
C198        C  0.12367841  0.47366374  0.14559236     0.28600
C199        C  0.14499973  0.47419025  0.12330509    -0.22200
C200        C  0.15340958  0.00093679  0.11004980    -0.10300
C201        C  0.13944584  0.02726481  0.11898056     0.28600
F202        F  0.14664500  0.05361389  0.10661211    -0.20800
H203        H  0.10776001  0.04730947  0.14779396     0.17000
H204        H  0.15546125  0.45363498  0.11693745     0.17000
F205        F  0.11713568  0.44741903  0.15851932    -0.20800
C206        C  0.34971567  0.47389157  0.12230416    -0.22200
C207        C  0.33953185  0.50083215  0.11077515    -0.10300
C208        C  0.35234565  0.02734606  0.12085744     0.28600
C209        C  0.37419049  0.02681993  0.14262689    -0.22200
C210        C  0.38381272  0.99996272  0.15475227    -0.10300
C211        C  0.37163708  0.47335750  0.14405305     0.28600
F212        F  0.38040772  0.44682472  0.15488616    -0.20800
H213        H  0.34035971  0.45313761  0.11483804     0.17000
H214        H  0.38332598  0.04760907  0.15026735     0.17000
F215        F  0.34361972  0.05388128  0.11001934    -0.20800
C216        C  0.46974864  0.12449722  0.35155988    -0.22200
C217        C  0.49675391  0.11455344  0.33987692    -0.10300
C218        C  0.02327935  0.12598997  0.35145683     0.28600
C219        C  0.02261844  0.14744498  0.37365881    -0.22200
C220        C  0.99562283  0.15794222  0.38483630    -0.10300
C221        C  0.46909136  0.14590418  0.37385704     0.28600
F222        F  0.44246959  0.15497609  0.38429998    -0.20800
H223        H  0.44900460  0.11593288  0.34321112     0.17000
H224        H  0.04337901  0.15618932  0.38178118     0.17000
F225        F  0.04992379  0.11689526  0.34109868    -0.20800
C226        C  0.02251911  0.35647036  0.37527721    -0.22200
C227        C  0.49573760  0.34329312  0.38383751    -0.10300
C228        C  0.46926434  0.35307271  0.37076162     0.28600
C229        C  0.46981650  0.37526843  0.34935189    -0.22200
C230        C  0.49665863  0.38805915  0.34039868    -0.10300
C231        C  0.02307525  0.37861109  0.35380117     0.28600
F232        F  0.04952396  0.39050276  0.34608201    -0.20800
H233        H  0.04319669  0.34945980  0.38504617     0.17000
H234        H  0.44916412  0.38205359  0.33937238     0.17000
F235        F  0.44285670  0.34081694  0.37804864    -0.20800
C236        C  0.47122394  0.38123040  0.14039717    -0.22200
C237        C  0.99761137  0.38819868  0.15519960    -0.10300
C238        C  0.02377848  0.37344380  0.14712162     0.28600
C239        C  0.02338821  0.35214648  0.12479902    -0.22200
C240        C  0.49693766  0.34474074  0.11038494    -0.10300
C241        C  0.47077165  0.35963917  0.11826812     0.28600
F242        F  0.44469835  0.35326565  0.10485441    -0.20800
H243        H  0.45078491  0.39227549  0.14618093     0.17000
H244        H  0.04377910  0.34084012  0.11936885     0.17000
F245        F  0.04960736  0.37871407  0.16143246    -0.20800
C246        C  0.47098210  0.12451977  0.14263910    -0.22200
C247        C  0.99785997  0.11406949  0.15405187    -0.10300
C248        C  0.02451743  0.12559107  0.14278359     0.28600
C249        C  0.02405563  0.14765527  0.12119519    -0.22200
C250        C  0.99713323  0.15862224  0.11034234    -0.10300
C251        C  0.47052505  0.14649277  0.12100370     0.28600
F252        F  0.44396929  0.15604854  0.11090048    -0.20800
H253        H  0.45014475  0.11594974  0.15074937     0.17000
H254        H  0.04486957  0.15645596  0.11327508     0.17000
F255        F  0.05107127  0.11598088  0.15285706    -0.20800
N256        N  0.06096316  0.48629630  0.71409456    -0.07000
N257        N  0.07809532  0.47577385  0.69297932    -0.59100
N258        N  0.06096167  0.01625256  0.78134373    -0.06700
N259        N  0.07858104  0.02670919  0.80210648    -0.61300
N260        N  0.06085149  0.48718954  0.78176862    -0.06300
N261        N  0.07833675  0.47729002  0.80286577    -0.59100
N262        N  0.06088801  0.01534900  0.71362228    -0.06000
N263        N  0.07792693  0.02520042  0.69212644    -0.61600
C264        C  0.08846919  0.00027364  0.67936897     0.95100
C265        C  0.08920189  0.50218236  0.81546066     0.94900
N266        N  0.48245626  0.06548392  0.78063190    -0.07200
N267        N  0.47222111  0.08258807  0.80193524    -0.59700
N268        N  0.01181336  0.06461150  0.71294293    -0.05300
N269        N  0.02221881  0.08161092  0.69168174    -0.61000
N270        N  0.48273660  0.06469720  0.71278607    -0.07200
N271        N  0.47279490  0.08179265  0.69138796    -0.60000
N272        N  0.01152846  0.06542792  0.78074012    -0.05000
N273        N  0.02165615  0.08251391  0.80210559    -0.61100
Mn274      Mn  0.03691181  0.04105958  0.74716731     1.18400
C275        C  0.49691389  0.09301663  0.81524115     0.97200
C276        C  0.99766838  0.09212262  0.67829177     0.97900
N277        N  0.01148658  0.43796769  0.78213417    -0.07300
N278        N  0.02159608  0.42082424  0.80338831    -0.63600
N279        N  0.48260912  0.43740014  0.71409720    -0.06100
N280        N  0.47257838  0.42042782  0.69257179    -0.64200
N281        N  0.01167641  0.43734283  0.71436952    -0.06800
N282        N  0.02202000  0.42029720  0.69310480    -0.63800
N283        N  0.48242124  0.43786048  0.78196756    -0.05700
N284        N  0.47216632  0.42061363  0.80310310    -0.64500
Mn285      Mn  0.03684926  0.46155958  0.74814506     1.10700
C286        C  0.49684026  0.41022489  0.81640963     0.98500
C287        C  0.99742558  0.40991984  0.67962139     0.98500
N288        N  0.43327204  0.01535270  0.71333105    -0.06800
N289        N  0.41613039  0.02515918  0.69191862    -0.62100
N290        N  0.43336646  0.48716928  0.78154229    -0.06100
N291        N  0.41674480  0.47712552  0.80326810    -0.58900
N292        N  0.43323968  0.01623556  0.78127808    -0.07400
N293        N  0.41650182  0.02653994  0.80286984    -0.61700
N294        N  0.43326392  0.48629487  0.71372751    -0.06400
N295        N  0.41611534  0.47574331  0.69262116    -0.58900
Mn296      Mn  0.45724308  0.04112097  0.74696063     1.20200
Mn297      Mn  0.45726200  0.46154210  0.74783697     1.10100
Cl298      Cl  0.99706595  0.00133198  0.74753166    -0.86900
C299        C  0.40564349  0.00021521  0.67908027     0.95500
C300        C  0.40640752  0.50187877  0.81650075     0.95300
N301        N  0.48245408  0.21789633  0.56155518    -0.07000
N302        N  0.47232452  0.19647465  0.57851170    -0.59100
N303        N  0.01142393  0.28586879  0.56100784    -0.06700
N304        N  0.02159288  0.30731194  0.57799400    -0.61300
N305        N  0.48235943  0.28583577  0.56108329    -0.06300
N306        N  0.47214749  0.30728944  0.57800779    -0.59100
N307        N  0.01151110  0.21792162  0.56146210    -0.06000
N308        N  0.02175581  0.19651397  0.57836810    -0.61600
C309        C  0.99705257  0.18321121  0.58880269     0.95100
C310        C  0.49685103  0.32060815  0.58834155     0.94900
N311        N  0.06044329  0.28494690  0.98244196    -0.07200
N312        N  0.07831609  0.30557525  0.97212193    -0.59700
N313        N  0.06026869  0.21746095  0.51197964    -0.05300
N314        N  0.07725484  0.19608884  0.52218485    -0.61000
N315        N  0.05999700  0.21715023  0.98294603    -0.07200
N316        N  0.07678497  0.19554936  0.97282395    -0.60000
N317        N  0.06046570  0.28519840  0.51147976    -0.05000
N318        N  0.07827759  0.30600445  0.52149434    -0.61100
Mn319      Mn  0.03656147  0.25166598  0.53712875     1.18400
C320        C  0.08918370  0.31865028  0.99674510     0.97200
C321        C  0.08734173  0.18248242  0.99751955     0.97900
N322        N  0.43302570  0.28535064  0.51250524    -0.07300
N323        N  0.41594071  0.30654484  0.52289971    -0.63600
N324        N  0.43264684  0.21764582  0.98378504    -0.06100
N325        N  0.41532199  0.19641258  0.97382318    -0.64200
N326        N  0.43301155  0.21766510  0.51280633    -0.06800
N327        N  0.41597168  0.19641149  0.52320792    -0.63800
N328        N  0.43283624  0.28539731  0.98347644    -0.05700
N329        N  0.41561121  0.30669202  0.97351834    -0.64500
Mn330      Mn  0.45709909  0.25166949  0.53762742     1.10700
C331        C  0.40527462  0.31975869  0.99837516     0.98500
C332        C  0.40518122  0.18324033  0.99863799     0.98500
N333        N  0.01041700  0.21687998  0.93411508    -0.06800
N334        N  0.02041373  0.19539424  0.91710864    -0.62100
N335        N  0.48158625  0.28481171  0.93373129    -0.06100
N336        N  0.47124931  0.30586915  0.91648055    -0.58900
N337        N  0.01065950  0.28482144  0.93349462    -0.07400
N338        N  0.02068579  0.30595292  0.91608038    -0.61700
N339        N  0.48134919  0.21697658  0.93426414    -0.06400
N340        N  0.47098381  0.19555485  0.91734613    -0.58900
Mn341      Mn  0.03602350  0.25097649  0.95757887     1.20200
Mn342      Mn  0.45645209  0.25123836  0.95816499     1.10100
Cl343      Cl  0.49654590  0.25144360  0.99761066    -0.86900
C344        C  0.99559710  0.18216216  0.90685744     0.95500
C345        C  0.49585546  0.31898153  0.90566510     0.95300
N346        N  0.28141297  0.43820869  0.98320594    -0.07000
N347        N  0.30284305  0.42121681  0.97311234    -0.59100
N348        N  0.21331769  0.43732751  0.51146398    -0.06700
N349        N  0.19256220  0.41931172  0.52122822    -0.61300
N350        N  0.21376796  0.43740587  0.98243194    -0.06300
N351        N  0.19335083  0.41943540  0.97185756    -0.59100
N352        N  0.28096936  0.43786785  0.51223203    -0.06000
N353        N  0.30206823  0.42059788  0.52248382    -0.61600
C354        C  0.31564824  0.41046629  0.99783917     0.95100
C355        C  0.18019709  0.40837002  0.99628789     0.94900
N356        N  0.21252736  0.01569460  0.56116664    -0.07200
N357        N  0.19099495  0.02584422  0.57800850    -0.59700
N358        N  0.28034472  0.48667054  0.56167660    -0.05300
N359        N  0.30167207  0.47638349  0.57865899    -0.61000
N360        N  0.28044044  0.01573063  0.56177822    -0.07200
N361        N  0.30184179  0.02580641  0.57884584    -0.60000
N362        N  0.21246739  0.48663143  0.56095599    -0.05000
N363        N  0.19093414  0.47641096  0.57774710    -0.61100
Mn364      Mn  0.24670660  0.46150054  0.53725669     1.18400
C365        C  0.17761282  0.00111022  0.58813528     0.97200
C366        C  0.31501273  0.50103827  0.58915517     0.97900
N367        N  0.21366726  0.48703120  0.93374242    -0.07300
N368        N  0.19256957  0.47677538  0.91638789    -0.63600
N369        N  0.28142141  0.01669968  0.93453168    -0.06100
N370        N  0.30301831  0.02714337  0.91791479    -0.64200
N371        N  0.28169448  0.48764393  0.93440589    -0.06800
N372        N  0.30346150  0.47773138  0.91769725    -0.63800
N373        N  0.21346366  0.01609079  0.93394640    -0.05700
N374        N  0.19230370  0.02620603  0.91667483    -0.64500
Mn375      Mn  0.24764105  0.46197580  0.95779186     1.10700
C376        C  0.17932391  0.00145223  0.90596142     0.98500
C377        C  0.31669766  0.50260016  0.90761104     0.98500
N378        N  0.28063890  0.06527696  0.51287222    -0.06800
N379        N  0.30196933  0.08245044  0.52302014    -0.62100
N380        N  0.21261006  0.06505922  0.98362444    -0.06100
N381        N  0.19101006  0.08188815  0.97360584    -0.58900
N382        N  0.21269210  0.06502650  0.51265649    -0.07400
N383        N  0.19116438  0.08178933  0.52297007    -0.61700
N384        N  0.28046955  0.06544042  0.98384895    -0.06400
N385        N  0.30160245  0.08268865  0.97363982    -0.58900
Mn386      Mn  0.24663431  0.04109429  0.53780377     1.20200
Mn387      Mn  0.24693703  0.04147363  0.95834875     1.10100
Cl388      Cl  0.24695428  0.50150472  0.99780663    -0.86900
C389        C  0.31491163  0.09310910  0.99825643     0.95500
C390        C  0.17770981  0.09211703  0.99839723     0.95300
C391        C  0.34776988  0.37472954  0.52455469    -0.22200
C392        C  0.33974236  0.38845834  0.99797386    -0.10300
C393        C  0.35413381  0.38007679  0.97170887     0.28600
C394        C  0.37578760  0.35809530  0.97214428    -0.22200
C395        C  0.38342199  0.34399085  0.99864240    -0.10300
C396        C  0.36926646  0.35262072  0.52496512     0.28600
F397        F  0.37543578  0.33917488  0.55100735    -0.20800
H398        H  0.33692485  0.38062784  0.54504904     0.17000
H399        H  0.38639038  0.35190916  0.95160571     0.17000
F400        F  0.34720124  0.39285405  0.94552777    -0.20800
C401        C  0.36929182  0.15110349  0.97219288    -0.22200
C402        C  0.38324563  0.15908414  0.99869454    -0.10300
C403        C  0.37528744  0.14446888  0.52493150     0.28600
C404        C  0.35336966  0.12267796  0.52454029    -0.22200
C405        C  0.33904261  0.11510045  0.99809184    -0.10300
C406        C  0.34736779  0.12942762  0.97180014     0.28600
F407        F  0.33385700  0.12318974  0.94576988    -0.20800
H408        H  0.37490852  0.16209275  0.95170689     0.17000
H409        H  0.34746499  0.11186312  0.54503914     0.17000
F410        F  0.38852132  0.15121884  0.55097572    -0.20800
C411        C  0.12499301  0.35089524  0.96991817    -0.22200
C412        C  0.11186097  0.34219243  0.99663022    -0.10300
C413        C  0.12117163  0.35566533  0.02307655     0.28600
C414        C  0.14326577  0.37722244  0.02266216    -0.22200
C415        C  0.15648202  0.38586835  0.99598880    -0.10300
C416        C  0.14711088  0.37248110  0.96950424     0.28600
F417        F  0.15948806  0.37985667  0.94322216    -0.20800
H418        H  0.11835438  0.34077207  0.94926818     0.17000
H419        H  0.15003137  0.38717132  0.04335706     0.17000
F420        F  0.10897457  0.34815288  0.04940317    -0.20800
C421        C  0.12020574  0.14740550  0.02453886    -0.22200
C422        C  0.10894796  0.15790328  0.99763006    -0.10300
C423        C  0.11935477  0.14539495  0.97111061     0.28600
C424        C  0.14122448  0.12359523  0.97163715    -0.22200
C425        C  0.15311255  0.11371438  0.99850077    -0.10300
C426        C  0.14201103  0.12552971  0.02507317     0.28600
F427        F  0.15253653  0.11647533  0.05161344    -0.20800
H428        H  0.11248733  0.15648649  0.54529071     0.17000
H429        H  0.14916850  0.11474577  0.95086940     0.17000
F430        F  0.10881661  0.15444890  0.94458046    -0.20800
C431        C  0.37478878  0.02886332  0.85295705    -0.22200
C432        C  0.38508011  0.50195151  0.84135655    -0.10300
C433        C  0.37395088  0.47534116  0.85303438     0.28600
C434        C  0.35231963  0.47582329  0.87507405    -0.22200
C435        C  0.34130684  0.50272290  0.88599144    -0.10000
C436        C  0.35316884  0.02933796  0.87506302     0.28600
F437        F  0.34358083  0.05587569  0.88525454    -0.20800
H438        H  0.38312077  0.04966574  0.84457002     0.17000
H439        H  0.34376868  0.45500076  0.88319097     0.17000
F440        F  0.38341163  0.44876542  0.84281372    -0.20800
C441        C  0.11904576  0.47581464  0.85354596    -0.22200
C442        C  0.11140685  0.50236634  0.83945124    -0.10300
C443        C  0.12574294  0.02864903  0.84801052     0.28600
C444        C  0.14733701  0.02816922  0.87004321    -0.22200
C445        C  0.15528839  0.00156198  0.88382743    -0.10300
C446        C  0.14074715  0.47532303  0.87551197     0.28600
F447        F  0.14742128  0.44916185  0.88851053    -0.20800
H448        H  0.10829796  0.45528314  0.84746308     0.17000
H449        H  0.15827257  0.04866634  0.87590110     0.17000
F450        F  0.11954179  0.05474893  0.83466583    -0.20800
C451        C  0.11796858  0.02671414  0.64114420    -0.22200
C452        C  0.11006464  0.00004758  0.65488180    -0.10300
C453        C  0.12367816  0.47366373  0.64559209     0.28600
C454        C  0.14499952  0.47419027  0.62330484    -0.22200
C455        C  0.15340957  0.00093664  0.61004969    -0.10300
C456        C  0.13944583  0.02726471  0.61898041     0.28600
F457        F  0.14664515  0.05361388  0.60661218    -0.20800
H458        H  0.10775991  0.04730927  0.64779357     0.17000
H459        H  0.15546065  0.45363494  0.61693689     0.17000
F460        F  0.11713542  0.44741898  0.65851896    -0.20800
C461        C  0.34971563  0.47389168  0.62230426    -0.22200
C462        C  0.33953179  0.50083220  0.61077515    -0.10300
C463        C  0.35234565  0.02734612  0.62085740     0.28600
C464        C  0.37419050  0.02681999  0.64262688    -0.22200
C465        C  0.38381267  0.99996278  0.65475231    -0.10300
C466        C  0.37163715  0.47335762  0.64405309     0.28600
F467        F  0.38040765  0.44682478  0.65488619    -0.20800
H468        H  0.34035995  0.45313793  0.61483814     0.17000
H469        H  0.38332586  0.04760924  0.65026760     0.17000
F470        F  0.34361963  0.05388130  0.61001934    -0.20800
C471        C  0.46974876  0.12449736  0.85155970    -0.22200
C472        C  0.49675398  0.11455348  0.83987681    -0.10300
C473        C  0.02327938  0.12599002  0.85145672     0.28600
C474        C  0.02261858  0.14744505  0.87365873    -0.22200
C475        C  0.99562295  0.15794244  0.88483612    -0.10300
C476        C  0.46909142  0.14590432  0.87385688     0.28600
F477        F  0.44246961  0.15497626  0.88429977    -0.20800
H478        H  0.44900468  0.11593311  0.84321076     0.17000
H479        H  0.04337897  0.15618948  0.88178075     0.17000
F480        F  0.04992383  0.11689527  0.84109879    -0.20800
C481        C  0.02251900  0.35647062  0.87527741    -0.22200
C482        C  0.49573769  0.34329322  0.88383764    -0.10300
C483        C  0.46926433  0.35307269  0.87076158     0.28600
C484        C  0.46981647  0.37526836  0.84935187    -0.22200
C485        C  0.49665855  0.38805918  0.84039875    -0.10300
C486        C  0.02307520  0.37861124  0.85380139     0.28600
F487        F  0.04952384  0.39050300  0.84608223    -0.20800
H488        H  0.04319750  0.34945973  0.88504686     0.17000
H489        H  0.44916393  0.38205319  0.83937199     0.17000
F490        F  0.44285665  0.34081685  0.87804848    -0.20800
C491        C  0.47122398  0.38123042  0.64039704    -0.22200
C492        C  0.99761141  0.38819858  0.65519960    -0.10300
C493        C  0.02377862  0.37344382  0.64712158     0.28600
C494        C  0.02338833  0.35214658  0.62479902    -0.22200
C495        C  0.49693776  0.34474081  0.61038483    -0.10300
C496        C  0.47077170  0.35963919  0.61826802     0.28600
F497        F  0.44469837  0.35326562  0.60485438    -0.20800
H498        H  0.45078494  0.39227497  0.64618124     0.17000
H499        H  0.04377989  0.34083962  0.61936913     0.17000
F500        F  0.04960739  0.37871420  0.66143253    -0.20800
C501        C  0.47098233  0.12451996  0.64263923    -0.22200
C502        C  0.99786022  0.11406958  0.65405199    -0.10300
C503        C  0.02451765  0.12559118  0.64278381     0.28600
C504        C  0.02405584  0.14765542  0.62119545    -0.22200
C505        C  0.99713342  0.15862235  0.61034248    -0.10300
C506        C  0.47052532  0.14649295  0.62100377     0.28600
F507        F  0.44396950  0.15604863  0.61090061    -0.20800
H508        H  0.45014553  0.11594959  0.65074875     0.17000
H509        H  0.04486973  0.15645610  0.61327552     0.17000
F510        F  0.05107147  0.11598085  0.65285716    -0.20800
N511        N  0.06096313  0.98629639  0.21409459    -0.07000
N512        N  0.07809534  0.97577393  0.19297932    -0.59100
N513        N  0.06096169  0.51625264  0.28134372    -0.06700
N514        N  0.07858110  0.52670930  0.30210643    -0.61300
N515        N  0.06085153  0.98718954  0.28176861    -0.06300
N516        N  0.07833675  0.97729003  0.30286576    -0.59100
N517        N  0.06088801  0.51534903  0.21362231    -0.06000
N518        N  0.07792690  0.52520052  0.19212646    -0.61600
C519        C  0.08846930  0.50027371  0.17936918     0.95100
C520        C  0.08920182  0.00218242  0.31546069     0.94900
N521        N  0.48245619  0.56548397  0.28063190    -0.07200
N522        N  0.47222101  0.58258804  0.30193530    -0.59700
N523        N  0.01181332  0.56461154  0.21294295    -0.05300
N524        N  0.02221879  0.58161097  0.19168177    -0.61000
N525        N  0.48273657  0.56469723  0.21278605    -0.07200
N526        N  0.47279488  0.58179257  0.19138786    -0.60000
N527        N  0.01152841  0.56542794  0.28074011    -0.05000
N528        N  0.02165610  0.58251396  0.30210553    -0.61100
Mn529      Mn  0.03691180  0.54105963  0.24716732     1.18400
C530        C  0.49691381  0.59301662  0.31524119     0.97200
C531        C  0.99766838  0.59212265  0.17829173     0.97900
N532        N  0.01148665  0.93796770  0.28213417    -0.07300
N533        N  0.02159620  0.92082425  0.30338830    -0.63600
N534        N  0.48260918  0.93740021  0.21409716    -0.06100
N535        N  0.47257846  0.92042785  0.19257178    -0.64200
N536        N  0.01167646  0.93734289  0.21436947    -0.06800
N537        N  0.02202005  0.92029724  0.19310471    -0.63800
N538        N  0.48242127  0.93786053  0.28196757    -0.05700
N539        N  0.47216639  0.92061359  0.30310304    -0.64500
Mn540      Mn  0.03684926  0.96155959  0.24814504     1.10700
C541        C  0.49684037  0.91022487  0.31640954     0.98500
C542        C  0.99742565  0.90991989  0.17962136     0.98500
N543        N  0.43327210  0.51535264  0.21333103    -0.06800
N544        N  0.41613040  0.52515915  0.19191866    -0.62100
N545        N  0.43336649  0.98716930  0.28154227    -0.06100
N546        N  0.41674489  0.97712547  0.30326805    -0.58900
N547        N  0.43323965  0.51623548  0.28127800    -0.07400
N548        N  0.41650184  0.52653987  0.30286980    -0.61700
N549        N  0.43326403  0.98629495  0.21372751    -0.06400
N550        N  0.41611543  0.97574331  0.19262119    -0.58900
Mn551      Mn  0.45724308  0.54112096  0.24696060     1.20200
Mn552      Mn  0.45726209  0.96154213  0.24783695     1.10100
Cl553      Cl  0.99706599  0.50133198  0.24753165    -0.86900
C554        C  0.40564349  0.50021519  0.17908023     0.95500
C555        C  0.40640753  0.00187870  0.31650073     0.95300
N556        N  0.48245401  0.71789623  0.06155512    -0.07000
N557        N  0.47232448  0.69647453  0.07851163    -0.59100
N558        N  0.01142382  0.78586871  0.06100795    -0.06700
N559        N  0.02159276  0.80731198  0.07799400    -0.61300
N560        N  0.48235932  0.78583571  0.06108331    -0.06300
N561        N  0.47214734  0.80728930  0.07800788    -0.59100
N562        N  0.01151105  0.71792158  0.06146214    -0.06000
N563        N  0.02175579  0.69651393  0.07836809    -0.61600
C564        C  0.99705253  0.68321108  0.08880254     0.95100
C565        C  0.49685087  0.82060804  0.08834164     0.94900
N566        N  0.06044330  0.78494687  0.48244184    -0.07200
N567        N  0.07831603  0.80557525  0.47212171    -0.59700
N568        N  0.06026865  0.71746097  0.01197971    -0.05300
N569        N  0.07725485  0.69608892  0.02218491    -0.61000
N570        N  0.05999701  0.71715016  0.48294597    -0.07200
N571        N  0.07678504  0.69554931  0.47282394    -0.60000
N572        N  0.06046562  0.78519847  0.01147989    -0.05000
N573        N  0.07827760  0.80600444  0.02149448    -0.61100
Mn574      Mn  0.03656140  0.75166598  0.03712879     1.18400
C575        C  0.08918373  0.81865017  0.49674492     0.97200
C576        C  0.08734171  0.68248232  0.49751953     0.97900
N577        N  0.43302570  0.78535065  0.01250527    -0.07300
N578        N  0.41594066  0.80654483  0.02289970    -0.63600
N579        N  0.43264692  0.71764583  0.48378512    -0.06100
N580        N  0.41532198  0.69641264  0.47382320    -0.64200
N581        N  0.43301163  0.71766504  0.01280626    -0.06800
N582        N  0.41597162  0.69641152  0.02320781    -0.63800
N583        N  0.43283629  0.78539729  0.48347645    -0.05700
N584        N  0.41561125  0.80669201  0.47351841    -0.64500
Mn585      Mn  0.45709903  0.75166941  0.03762741     1.10700
C586        C  0.40527463  0.81975860  0.49837526     0.98500
C587        C  0.40518123  0.68324038  0.49863805     0.98500
N588        N  0.01041699  0.71687994  0.43411510    -0.06800
N589        N  0.02041369  0.69539411  0.41710875    -0.62100
N590        N  0.48158627  0.78481165  0.43373122    -0.06100
N591        N  0.47124934  0.80586919  0.41648055    -0.58900
N592        N  0.01065954  0.78482143  0.43349458    -0.07400
N593        N  0.02068584  0.80595288  0.41608029    -0.61700
N594        N  0.48134919  0.71697656  0.43426414    -0.06400
N595        N  0.47098374  0.69555474  0.41734619    -0.58900
Mn596      Mn  0.03602351  0.75097643  0.45757881     1.20200
Mn597      Mn  0.45645214  0.75123830  0.45816499     1.10100
Cl598      Cl  0.49654594  0.75144357  0.49761061    -0.86900
C599        C  0.99559701  0.68216205  0.40685753     0.95500
C600        C  0.49585550  0.81898148  0.40566503     0.95300
N601        N  0.28141311  0.93820872  0.48320590    -0.07000
N602        N  0.30284318  0.92121692  0.47311229    -0.59100
N603        N  0.21331762  0.93732754  0.01146415    -0.06700
N604        N  0.19256217  0.91931174  0.02122838    -0.61300
N605        N  0.21376805  0.93740587  0.48243179    -0.06300
N606        N  0.19335091  0.91943541  0.47185738    -0.59100
N607        N  0.28096933  0.93786785  0.01223209    -0.06000
N608        N  0.30206822  0.92059785  0.02248377    -0.61600
C609        C  0.31564829  0.91046631  0.49783918     0.95100
C610        C  0.18019705  0.90837008  0.49628767     0.94900
N611        N  0.21252733  0.51569460  0.06116669    -0.07200
N612        N  0.19099502  0.52584425  0.07800864    -0.59700
N613        N  0.28034476  0.98667046  0.06167668    -0.05300
N614        N  0.30167210  0.97638345  0.07865911    -0.61000
N615        N  0.28044048  0.51573068  0.06177833    -0.07200
N616        N  0.30184183  0.52580647  0.07884598    -0.60000
N617        N  0.21246748  0.98663145  0.06095624    -0.05000
N618        N  0.19093413  0.97641093  0.07774720    -0.61100
Mn619      Mn  0.24670658  0.96150054  0.03725682     1.18400
C620        C  0.17761287  0.50111029  0.08813552     0.97200
C621        C  0.31501273  0.00103824  0.08915530     0.97900
N622        N  0.21366737  0.98703119  0.43374227    -0.07300
N623        N  0.19256967  0.97677539  0.41638775    -0.63600
N624        N  0.28142148  0.51669966  0.43453158    -0.06100
N625        N  0.30301851  0.52714330  0.41791482    -0.64200
N626        N  0.28169463  0.98764395  0.43440587    -0.06800
N627        N  0.30346169  0.97773134  0.41769735    -0.63800
N628        N  0.21346373  0.51609081  0.43394631    -0.05700
N629        N  0.19230389  0.52620609  0.41667465    -0.64500
Mn630      Mn  0.24764113  0.96197577  0.45779177     1.10700
C631        C  0.17932404  0.50145229  0.40596131     0.98500
C632        C  0.31669783  0.00260012  0.40761103     0.98500
N633        N  0.28063888  0.56527705  0.01287233    -0.06800
N634        N  0.30196940  0.58245046  0.02302016    -0.62100
N635        N  0.21261017  0.56505920  0.48362433    -0.06100
N636        N  0.19101013  0.58188817  0.47360568    -0.58900
N637        N  0.21269197  0.56502647  0.01265665    -0.07400
N638        N  0.19116431  0.58178938  0.02297023    -0.61700
N639        N  0.28046959  0.56544043  0.48384886    -0.06400
N640        N  0.30160260  0.58268860  0.47363977    -0.58900
Mn641      Mn  0.24663429  0.54109432  0.03780392     1.20200
Mn642      Mn  0.24693708  0.54147365  0.45834863     1.10100
Cl643      Cl  0.24695428  0.00150472  0.49780655    -0.86900
C644        C  0.31491174  0.59310897  0.49825643     0.95500
C645        C  0.17770988  0.59211699  0.49839706     0.95300
C646        C  0.34776983  0.87472961  0.02455462    -0.22200
C647        C  0.33974243  0.88845841  0.49797390    -0.10300
C648        C  0.35413403  0.88007694  0.47170901     0.28600
C649        C  0.37578777  0.85809531  0.47214441    -0.22200
C650        C  0.38342205  0.84399077  0.49864253    -0.10300
C651        C  0.36926646  0.85262086  0.02496511     0.28600
F652        F  0.37543600  0.83917518  0.05100738    -0.20800
H653        H  0.33692477  0.88062822  0.04504941     0.17000
H654        H  0.38639078  0.85190948  0.45160610     0.17000
F655        F  0.34720160  0.89285426  0.44552790    -0.20800
C656        C  0.36929209  0.65110318  0.47219300    -0.22200
C657        C  0.38324563  0.65908412  0.49869470    -0.10300
C658        C  0.37528779  0.64446863  0.02493120     0.28600
C659        C  0.35336997  0.62267766  0.02454000    -0.22200
C660        C  0.33904272  0.61510033  0.49809196    -0.10300
C661        C  0.34736815  0.62942726  0.47180016     0.28600
F662        F  0.33385771  0.62318905  0.44576977    -0.20800
H663        H  0.37490883  0.66209245  0.45170683     0.17000
H664        H  0.34746592  0.61186270  0.04503799     0.17000
F665        F  0.38852207  0.65121817  0.05097539    -0.20800
C666        C  0.12499316  0.85089497  0.46991801    -0.22200
C667        C  0.11186092  0.84219242  0.49663011    -0.10300
C668        C  0.12117125  0.85566562  0.52307628     0.28600
C669        C  0.14326549  0.87722277  0.52266187    -0.22200
C670        C  0.15648200  0.88586832  0.49598843    -0.10300
C671        C  0.14711109  0.87248089  0.46950402     0.28600
F672        F  0.15948857  0.87985619  0.44322200    -0.20800
H673        H  0.11835499  0.84077154  0.44926853     0.17000
H674        H  0.15003068  0.88717157  0.54335597     0.17000
F675        F  0.10897395  0.84815352  0.54940292    -0.20800
C676        C  0.12020589  0.64740559  0.52453883    -0.22200
C677        C  0.10894801  0.65790325  0.49763000    -0.10300
C678        C  0.11935477  0.64539495  0.47111064     0.28600
C679        C  0.14122445  0.62359514  0.47163716    -0.22200
C680        C  0.15311261  0.61371436  0.49850077    -0.10300
C681        C  0.14201120  0.62552972  0.52507308     0.28600
F682        F  0.15253679  0.61647547  0.55161334    -0.20800
H683        H  0.11248681  0.65648654  0.04529137     0.17000
H684        H  0.14916819  0.61474578  0.45087000     0.17000
F685        F  0.10881661  0.65444880  0.44458041    -0.20800
C686        C  0.37478896  0.52886325  0.35295715    -0.22200
C687        C  0.38508012  0.00195141  0.34135651    -0.10300
C688        C  0.37395094  0.97534110  0.35303438     0.28600
C689        C  0.35231971  0.97582324  0.37507410    -0.22200
C690        C  0.34130699  0.00272286  0.38599144    -0.10000
C691        C  0.35316905  0.52933794  0.37506309     0.28600
F692        F  0.34358106  0.55587564  0.38525468    -0.20800
H693        H  0.38312093  0.54966588  0.34456991     0.17000
H694        H  0.34376881  0.95500091  0.38319109     0.17000
F695        F  0.38341163  0.94876538  0.34281367    -0.20800
C696        C  0.11904578  0.97581462  0.35354597    -0.22200
C697        C  0.11140679  0.00236630  0.33945122    -0.10300
C698        C  0.12574311  0.52864905  0.34801035     0.28600
C699        C  0.14733730  0.52816922  0.37004305    -0.22200
C700        C  0.15528852  0.50156194  0.38382736    -0.10300
C701        C  0.14074716  0.97532293  0.37551185     0.28600
F702        F  0.14742132  0.94916184  0.38851055    -0.20800
H703        H  0.10829764  0.95528249  0.34746306     0.17000
H704        H  0.15827267  0.54866564  0.37590069     0.17000
F705        F  0.11954198  0.55474898  0.33466571    -0.20800
C706        C  0.11796854  0.52671426  0.14114431    -0.22200
C707        C  0.11006463  0.50004770  0.15488196    -0.10300
C708        C  0.12367850  0.97366375  0.14559233     0.28600
C709        C  0.14499980  0.97419034  0.12330504    -0.22200
C710        C  0.15340952  0.50093680  0.11004988    -0.10300
C711        C  0.13944578  0.52726482  0.11898055     0.28600
F712        F  0.14664498  0.55361385  0.10661208    -0.20800
H713        H  0.10775974  0.54730964  0.14779371     0.17000
H714        H  0.15546145  0.95363460  0.11693713     0.17000
F715        F  0.11713581  0.94741908  0.15851938    -0.20800
C716        C  0.34971571  0.97389164  0.12230421    -0.22200
C717        C  0.33953189  0.00083223  0.11077519    -0.10300
C718        C  0.35234559  0.52734604  0.12085742     0.28600
C719        C  0.37419044  0.52681997  0.14262684    -0.22200
C720        C  0.38381264  0.49996269  0.15475221    -0.10300
C721        C  0.37163714  0.97335762  0.14405314     0.28600
F722        F  0.38040768  0.94682476  0.15488616    -0.20800
H723        H  0.34035997  0.95313828  0.11483834     0.17000
H724        H  0.38332560  0.54760892  0.15026730     0.17000
F725        F  0.34361968  0.55388129  0.11001936    -0.20800
C726        C  0.46974862  0.62449722  0.35155985    -0.22200
C727        C  0.49675387  0.61455342  0.33987694    -0.10300
C728        C  0.02327932  0.62599007  0.35145678     0.28600
C729        C  0.02261840  0.64744502  0.37365881    -0.22200
C730        C  0.99562279  0.65794223  0.38483629    -0.10300
C731        C  0.46909132  0.64590413  0.37385702     0.28600
F732        F  0.44246955  0.65497600  0.38429997    -0.20800
H733        H  0.44900445  0.61593270  0.34321114     0.17000
H734        H  0.04337904  0.65618945  0.38178119     0.17000
F735        F  0.04992380  0.61689536  0.34109870    -0.20800
C736        C  0.02251909  0.85647040  0.37527718    -0.22200
C737        C  0.49573765  0.84329312  0.38383748    -0.10300
C738        C  0.46926443  0.85307278  0.37076169     0.28600
C739        C  0.46981658  0.87526847  0.34935189    -0.22200
C740        C  0.49665880  0.88805913  0.34039868    -0.10300
C741        C  0.02307525  0.87861111  0.35380117     0.28600
F742        F  0.04952394  0.89050277  0.34608204    -0.20800
H743        H  0.04319686  0.84945955  0.38504617     0.17000
H744        H  0.44916477  0.88205347  0.33937272     0.17000
F745        F  0.44285671  0.84081706  0.37804862    -0.20800
C746        C  0.47122396  0.88123037  0.14039710    -0.22200
C747        C  0.99761146  0.88819857  0.15519962    -0.10300
C748        C  0.02377857  0.87344373  0.14712165     0.28600
C749        C  0.02338819  0.85214643  0.12479905    -0.22200
C750        C  0.49693761  0.84474074  0.11038484    -0.10300
C751        C  0.47077162  0.85963910  0.11826805     0.28600
F752        F  0.44469826  0.85326560  0.10485440    -0.20800
H753        H  0.45078511  0.89227505  0.14618102     0.17000
H754        H  0.04377940  0.84083965  0.11936916     0.17000
F755        F  0.04960741  0.87871404  0.16143260    -0.20800
C756        C  0.47098223  0.62451990  0.14263917    -0.22200
C757        C  0.99786012  0.61406949  0.15405181    -0.10300
C758        C  0.02451765  0.62559117  0.14278366     0.28600
C759        C  0.02405584  0.64765527  0.12119524    -0.22200
C760        C  0.99713349  0.65862230  0.11034233    -0.10300
C761        C  0.47052525  0.64649284  0.12100368     0.28600
F762        F  0.44396945  0.65604857  0.11090059    -0.20800
H763        H  0.45014523  0.61594963  0.15074910     0.17000
H764        H  0.04487056  0.65645608  0.11327494     0.17000
F765        F  0.05107141  0.61598075  0.15285709    -0.20800
N766        N  0.06096315  0.98629631  0.71409456    -0.07000
N767        N  0.07809529  0.97577384  0.69297929    -0.59100
N768        N  0.06096176  0.51625259  0.78134367    -0.06700
N769        N  0.07858112  0.52670925  0.80210642    -0.61300
N770        N  0.06085152  0.98718950  0.78176860    -0.06300
N771        N  0.07833671  0.97728998  0.80286582    -0.59100
N772        N  0.06088801  0.51534900  0.71362225    -0.06000
N773        N  0.07792688  0.52520050  0.69212643    -0.61600
C774        C  0.08846918  0.50027369  0.67936903     0.95100
C775        C  0.08920178  0.00218232  0.81546078     0.94900
N776        N  0.48245625  0.56548391  0.78063189    -0.07200
N777        N  0.47222107  0.58258804  0.80193527    -0.59700
N778        N  0.01181343  0.56461158  0.71294289    -0.05300
N779        N  0.02221889  0.58161100  0.69168172    -0.61000
N780        N  0.48273653  0.56469720  0.71278600    -0.07200
N781        N  0.47279489  0.58179265  0.69138791    -0.60000
N782        N  0.01152850  0.56542797  0.78074005    -0.05000
N783        N  0.02165618  0.58251392  0.80210556    -0.61100
Mn784      Mn  0.03691188  0.54105959  0.74716727     1.18400
C785        C  0.49691388  0.59301660  0.81524115     0.97200
C786        C  0.99766843  0.59212275  0.67829180     0.97900
N787        N  0.01148658  0.93796774  0.78213422    -0.07300
N788        N  0.02159613  0.92082427  0.80338833    -0.63600
N789        N  0.48260913  0.93740025  0.71409718    -0.06100
N790        N  0.47257843  0.92042789  0.69257176    -0.64200
N791        N  0.01167639  0.93734293  0.71436952    -0.06800
N792        N  0.02202000  0.92029727  0.69310479    -0.63800
N793        N  0.48242123  0.93786050  0.78196761    -0.05700
N794        N  0.47216636  0.92061367  0.80310315    -0.64500
Mn795      Mn  0.03684923  0.96155959  0.74814506     1.10700
C796        C  0.49684033  0.91022480  0.81640956     0.98500
C797        C  0.99742565  0.90991990  0.67962137     0.98500
N798        N  0.43327207  0.51535264  0.71333098    -0.06800
N799        N  0.41613035  0.52515912  0.69191861    -0.62100
N800        N  0.43336644  0.98716934  0.78154232    -0.06100
N801        N  0.41674482  0.97712545  0.80326810    -0.58900
N802        N  0.43323962  0.51623552  0.78127794    -0.07400
N803        N  0.41650183  0.52653992  0.80286973    -0.61700
N804        N  0.43326391  0.98629493  0.71372757    -0.06400
N805        N  0.41611537  0.97574330  0.69262123    -0.58900
Mn806      Mn  0.45724304  0.54112097  0.74696060     1.20200
Mn807      Mn  0.45726204  0.96154217  0.74783701     1.10100
Cl808      Cl  0.99706600  0.50133195  0.74753163    -0.86900
C809        C  0.40564346  0.50021518  0.67908022     0.95500
C810        C  0.40640750  0.00187874  0.81650070     0.95300
N811        N  0.48245414  0.71789631  0.56155513    -0.07000
N812        N  0.47232459  0.69647462  0.57851168    -0.59100
N813        N  0.01142390  0.78586876  0.56100786    -0.06700
N814        N  0.02159281  0.80731196  0.57799403    -0.61300
N815        N  0.48235946  0.78583578  0.56108322    -0.06300
N816        N  0.47214747  0.80728935  0.57800780    -0.59100
N817        N  0.01151107  0.71792165  0.56146207    -0.06000
N818        N  0.02175575  0.69651402  0.57836809    -0.61600
C819        C  0.99705256  0.68321114  0.58880261     0.95100
C820        C  0.49685098  0.82060815  0.58834158     0.94900
N821        N  0.06044334  0.78494676  0.98244197    -0.07200
N822        N  0.07831598  0.80557522  0.97212192    -0.59700
N823        N  0.06026862  0.71746096  0.51197963    -0.05300
N824        N  0.07725485  0.69608891  0.52218481    -0.61000
N825        N  0.05999694  0.71715011  0.98294602    -0.07200
N826        N  0.07678508  0.69554939  0.97282396    -0.60000
N827        N  0.06046571  0.78519846  0.51147977    -0.05000
N828        N  0.07827765  0.80600446  0.52149435    -0.61100
Mn829      Mn  0.03656148  0.75166598  0.53712873     1.18400
C830        C  0.08918372  0.81865015  0.99674509     0.97200
C831        C  0.08734169  0.68248235  0.99751959     0.97900
N832        N  0.43302572  0.78535061  0.51250525    -0.07300
N833        N  0.41594060  0.80654470  0.52289974    -0.63600
N834        N  0.43264692  0.71764584  0.98378502    -0.06100
N835        N  0.41532197  0.69641268  0.97382317    -0.64200
N836        N  0.43301156  0.71766510  0.51280633    -0.06800
N837        N  0.41597170  0.69641146  0.52320792    -0.63800
N838        N  0.43283636  0.78539734  0.98347644    -0.05700
N839        N  0.41561135  0.80669203  0.97351835    -0.64500
Mn840      Mn  0.45709914  0.75166947  0.53762740     1.10700
C841        C  0.40527463  0.81975864  0.99837520     0.98500
C842        C  0.40518129  0.68324029  0.99863795     0.98500
N843        N  0.01041704  0.71687997  0.93411508    -0.06800
N844        N  0.02041383  0.69539417  0.91710869    -0.62100
N845        N  0.48158627  0.78481167  0.93373126    -0.06100
N846        N  0.47124933  0.80586916  0.91648059    -0.58900
N847        N  0.01065958  0.78482147  0.93349463    -0.07400
N848        N  0.02068586  0.80595287  0.91608031    -0.61700
N849        N  0.48134923  0.71697655  0.93426415    -0.06400
N850        N  0.47098383  0.69555486  0.91734609    -0.58900
Mn851      Mn  0.03602351  0.75097643  0.95757886     1.20200
Mn852      Mn  0.45645213  0.75123833  0.95816496     1.10100
Cl853      Cl  0.49654593  0.75144355  0.99761065    -0.86900
C854        C  0.99559715  0.68216213  0.90685747     0.95500
C855        C  0.49585546  0.81898157  0.90566514     0.95300
N856        N  0.28141295  0.93820871  0.98320594    -0.07000
N857        N  0.30284304  0.92121694  0.97311224    -0.59100
N858        N  0.21331766  0.93732751  0.51146396    -0.06700
N859        N  0.19256219  0.91931171  0.52122818    -0.61300
N860        N  0.21376794  0.93740585  0.98243194    -0.06300
N861        N  0.19335082  0.91943542  0.97185754    -0.59100
N862        N  0.28096935  0.93786775  0.51223206    -0.06000
N863        N  0.30206822  0.92059781  0.52248386    -0.61600
C864        C  0.31564821  0.91046631  0.99783907     0.95100
C865        C  0.18019704  0.90837005  0.99628787     0.94900
N866        N  0.21252733  0.51569458  0.56116663    -0.07200
N867        N  0.19099496  0.52584421  0.57800853    -0.59700
N868        N  0.28034473  0.98667045  0.56167656    -0.05300
N869        N  0.30167205  0.97638346  0.57865899    -0.61000
N870        N  0.28044046  0.51573067  0.56177821    -0.07200
N871        N  0.30184174  0.52580644  0.57884598    -0.60000
N872        N  0.21246738  0.98663148  0.56095600    -0.05000
N873        N  0.19093415  0.97641091  0.57774710    -0.61100
Mn874      Mn  0.24670654  0.96150050  0.53725668     1.18400
C875        C  0.17761276  0.50111026  0.58813528     0.97200
C876        C  0.31501276  0.00103826  0.58915514     0.97900
N877        N  0.21366721  0.98703120  0.93374249    -0.07300
N878        N  0.19256948  0.97677542  0.91638792    -0.63600
N879        N  0.28142135  0.51669967  0.93453166    -0.06100
N880        N  0.30301835  0.52714335  0.91791483    -0.64200
N881        N  0.28169447  0.98764390  0.93440582    -0.06800
N882        N  0.30346146  0.97773133  0.91769719    -0.63800
N883        N  0.21346363  0.51609081  0.93394641    -0.05700
N884        N  0.19230367  0.52620607  0.91667487    -0.64500
Mn885      Mn  0.24764103  0.96197575  0.95779187     1.10700
C886        C  0.17932403  0.50145223  0.90596138     0.98500
C887        C  0.31669766  0.00260014  0.90761106     0.98500
N888        N  0.28063893  0.56527693  0.51287224    -0.06800
N889        N  0.30196930  0.58245044  0.52302013    -0.62100
N890        N  0.21261003  0.56505924  0.98362445    -0.06100
N891        N  0.19101001  0.58188816  0.97360583    -0.58900
N892        N  0.21269207  0.56502641  0.51265647    -0.07400
N893        N  0.19116435  0.58178929  0.52297005    -0.61700
N894        N  0.28046952  0.56544045  0.98384898    -0.06400
N895        N  0.30160253  0.58268859  0.97363985    -0.58900
Mn896      Mn  0.24663429  0.54109428  0.53780380     1.20200
Mn897      Mn  0.24693700  0.54147362  0.95834874     1.10100
Cl898      Cl  0.24695424  0.00150470  0.99780664    -0.86900
C899        C  0.31491169  0.59310902  0.99825644     0.95500
C900        C  0.17770975  0.59211696  0.99839723     0.95300
C901        C  0.34776987  0.87472955  0.52455465    -0.22200
C902        C  0.33974236  0.88845840  0.99797384    -0.10300
C903        C  0.35413380  0.88007675  0.97170890     0.28600
C904        C  0.37578759  0.85809522  0.97214434    -0.22200
C905        C  0.38342203  0.84399083  0.99864248    -0.10300
C906        C  0.36926643  0.85262072  0.52496512     0.28600
F907        F  0.37543577  0.83917491  0.55100739    -0.20800
H908        H  0.33692494  0.88062813  0.54504923     0.17000
H909        H  0.38639059  0.85190940  0.95160601     0.17000
F910        F  0.34720130  0.89285403  0.94552777    -0.20800
C911        C  0.36929176  0.65110345  0.97219287    -0.22200
C912        C  0.38324568  0.65908406  0.99869454    -0.10300
C913        C  0.37528742  0.64446890  0.52493154     0.28600
C914        C  0.35336967  0.62267802  0.52454024    -0.22200
C915        C  0.33904266  0.61510036  0.99809176    -0.10300
C916        C  0.34736779  0.62942748  0.97180013     0.28600
F917        F  0.33385699  0.62318963  0.94576988    -0.20800
H918        H  0.37490838  0.66209251  0.95170711     0.17000
H919        H  0.34746509  0.61186293  0.54503921     0.17000
F920        F  0.38852133  0.65121879  0.55097575    -0.20800
C921        C  0.12499295  0.85089523  0.96991815    -0.22200
C922        C  0.11186091  0.84219237  0.99663016    -0.10300
C923        C  0.12117159  0.85566525  0.02307649     0.28600
C924        C  0.14326570  0.87722243  0.02266211    -0.22200
C925        C  0.15648203  0.88586829  0.99598874    -0.10300
C926        C  0.14711082  0.87248112  0.96950419     0.28600
F927        F  0.15948800  0.87985672  0.94322214    -0.20800
H928        H  0.11835442  0.84077174  0.94926798     0.17000
H929        H  0.15003144  0.88717086  0.04335677     0.17000
F930        F  0.10897467  0.84815276  0.04940321    -0.20800
C931        C  0.12020586  0.64740551  0.02453893    -0.22200
C932        C  0.10894794  0.65790323  0.99763014    -0.10300
C933        C  0.11935478  0.64539497  0.97111068     0.28600
C934        C  0.14122443  0.62359516  0.97163722    -0.22200
C935        C  0.15311252  0.61371426  0.99850080    -0.10300
C936        C  0.14201111  0.62552964  0.02507318     0.28600
F937        F  0.15253661  0.61647531  0.05161345    -0.20800
H938        H  0.11248727  0.65648690  0.54529086     0.17000
H939        H  0.14916825  0.61474556  0.95086946     0.17000
F940        F  0.10881652  0.65444881  0.94458048    -0.20800
C941        C  0.37478876  0.52886328  0.85295707    -0.22200
C942        C  0.38508016  0.00195154  0.84135651    -0.10300
C943        C  0.37395088  0.97534126  0.85303428     0.28600
C944        C  0.35231961  0.97582333  0.87507405    -0.22200
C945        C  0.34130682  0.00272297  0.88599142    -0.10000
C946        C  0.35316883  0.52933797  0.87506300     0.28600
F947        F  0.34358080  0.55587572  0.88525451    -0.20800
H948        H  0.38312074  0.54966573  0.84456992     0.17000
H949        H  0.34376888  0.95500145  0.88319073     0.17000
F950        F  0.38341157  0.94876542  0.84281372    -0.20800
C951        C  0.11904567  0.97581454  0.85354604    -0.22200
C952        C  0.11140679  0.00236617  0.83945128    -0.10300
C953        C  0.12574300  0.52864905  0.84801050     0.28600
C954        C  0.14733711  0.52816919  0.87004328    -0.22200
C955        C  0.15528850  0.50156194  0.88382748    -0.10300
C956        C  0.14074701  0.97532290  0.87551195     0.28600
F957        F  0.14742127  0.94916180  0.88851055    -0.20800
H958        H  0.10829761  0.95528219  0.84746272     0.17000
H959        H  0.15827270  0.54866591  0.87590097     0.17000
F960        F  0.11954174  0.55474900  0.83466598    -0.20800
C961        C  0.11796858  0.52671418  0.64114421    -0.22200
C962        C  0.11006456  0.50004766  0.65488185    -0.10300
C963        C  0.12367826  0.97366359  0.64559198     0.28600
C964        C  0.14499957  0.97419019  0.62330479    -0.22200
C965        C  0.15340943  0.50093680  0.61004966    -0.10300
C966        C  0.13944582  0.52726482  0.61898043     0.28600
F967        F  0.14664514  0.55361393  0.60661211    -0.20800
H968        H  0.10775978  0.54730946  0.64779354     0.17000
H969        H  0.15546136  0.95363407  0.61693681     0.17000
F970        F  0.11713542  0.94741895  0.65851891    -0.20800
C971        C  0.34971569  0.97389170  0.62230419    -0.22200
C972        C  0.33953183  0.00083229  0.61077518    -0.10300
C973        C  0.35234554  0.52734604  0.62085744     0.28600
C974        C  0.37419043  0.52681990  0.64262687    -0.22200
C975        C  0.38381258  0.49996274  0.65475235    -0.10300
C976        C  0.37163712  0.97335769  0.64405316     0.28600
F977        F  0.38040755  0.94682484  0.65488630    -0.20800
H978        H  0.34035990  0.95313841  0.61483847     0.17000
H979        H  0.38332590  0.54760908  0.65026736     0.17000
F980        F  0.34361962  0.55388129  0.61001938    -0.20800
C981        C  0.46974874  0.62449735  0.85155976    -0.22200
C982        C  0.49675398  0.61455349  0.83987683    -0.10300
C983        C  0.02327939  0.62598997  0.85145671     0.28600
C984        C  0.02261861  0.64744504  0.87365867    -0.22200
C985        C  0.99562289  0.65794236  0.88483609    -0.10300
C986        C  0.46909148  0.64590427  0.87385693     0.28600
F987        F  0.44246972  0.65497614  0.88429991    -0.20800
H988        H  0.44900466  0.61593304  0.84321110     0.17000
H989        H  0.04337866  0.65618906  0.88178071     0.17000
F990        F  0.04992388  0.61689530  0.84109871    -0.20800
C991        C  0.02251899  0.85647054  0.87527735    -0.22200
C992        C  0.49573758  0.84329321  0.88383760    -0.10300
C993        C  0.46926436  0.85307267  0.87076155     0.28600
C994        C  0.46981652  0.87526838  0.84935183    -0.22200
C995        C  0.49665868  0.88805916  0.84039876    -0.10300
C996        C  0.02307518  0.87861122  0.85380134     0.28600
F997        F  0.04952385  0.89050301  0.84608229    -0.20800
H998        H  0.04319689  0.84945990  0.88504686     0.17000
H999        H  0.44916452  0.88205334  0.83937236     0.17000
F1000       F  0.44285670  0.84081684  0.87804842    -0.20800
C1001       C  0.47122394  0.88123045  0.64039714    -0.22200
C1002       C  0.99761139  0.88819868  0.65519957    -0.10300
C1003       C  0.02377859  0.87344384  0.64712155     0.28600
C1004       C  0.02338828  0.85214659  0.62479899    -0.22200
C1005       C  0.49693763  0.84474087  0.61038488    -0.10300
C1006       C  0.47077158  0.85963924  0.61826811     0.28600
F1007       F  0.44469831  0.85326556  0.60485442    -0.20800
H1008       H  0.45078465  0.89227544  0.64618127     0.17000
H1009       H  0.04377969  0.84083994  0.61936891     0.17000
F1010       F  0.04960744  0.87871422  0.66143240    -0.20800
C1011       C  0.47098227  0.62451999  0.64263919    -0.22200
C1012       C  0.99786023  0.61406958  0.65405194    -0.10300
C1013       C  0.02451759  0.62559129  0.64278381     0.28600
C1014       C  0.02405578  0.64765547  0.62119540    -0.22200
C1015       C  0.99713338  0.65862238  0.61034246    -0.10300
C1016       C  0.47052526  0.64649301  0.62100374     0.28600
F1017       F  0.44396943  0.65604871  0.61090061    -0.20800
H1018       H  0.45014553  0.61594995  0.65074911     0.17000
H1019       H  0.04486964  0.65645622  0.61327562     0.17000
F1020       F  0.05107141  0.61598097  0.65285713    -0.20800
N1021       N  0.56096313  0.48629637  0.21409460    -0.07000
N1022       N  0.57809529  0.47577387  0.19297934    -0.59100
N1023       N  0.56096165  0.01625267  0.28134376    -0.06700
N1024       N  0.57858106  0.02670935  0.30210643    -0.61300
N1025       N  0.56085152  0.48718958  0.28176860    -0.06300
N1026       N  0.57833679  0.47729007  0.30286575    -0.59100
N1027       N  0.56088795  0.01534901  0.21362230    -0.06000
N1028       N  0.57792692  0.02520053  0.19212648    -0.61600
C1029       C  0.58846932  0.00027377  0.17936916     0.95100
C1030       C  0.58920186  0.50218241  0.31546067     0.94900
N1031       N  0.98245613  0.06548399  0.28063190    -0.07200
N1032       N  0.97222100  0.08258808  0.30193527    -0.59700
N1033       N  0.51181328  0.06461157  0.21294288    -0.05300
N1034       N  0.52221878  0.08161090  0.19168163    -0.61000
N1035       N  0.98273651  0.06469726  0.21278605    -0.07200
N1036       N  0.97279480  0.08179260  0.19138788    -0.60000
N1037       N  0.51152839  0.06542793  0.28074013    -0.05000
N1038       N  0.52165609  0.08251384  0.30210560    -0.61100
Mn1039     Mn  0.53691179  0.04105963  0.24716730     1.18400
C1040       C  0.99691381  0.09301663  0.31524120     0.97200
C1041       C  0.49766831  0.09212263  0.17829171     0.97900
N1042       N  0.51148667  0.43796765  0.28213420    -0.07300
N1043       N  0.52159618  0.42082417  0.30338830    -0.63600
N1044       N  0.98260917  0.43740018  0.21409717    -0.06100
N1045       N  0.97257842  0.42042786  0.19257177    -0.64200
N1046       N  0.51167644  0.43734286  0.21436949    -0.06800
N1047       N  0.52202008  0.42029722  0.19310476    -0.63800
N1048       N  0.98242128  0.43786047  0.28196760    -0.05700
N1049       N  0.97216640  0.42061366  0.30310309    -0.64500
Mn1050     Mn  0.53684925  0.46155961  0.24814507     1.10700
C1051       C  0.99684035  0.41022479  0.31640956     0.98500
C1052       C  0.49742566  0.40991988  0.17962139     0.98500
N1053       N  0.93327210  0.01535270  0.21333104    -0.06800
N1054       N  0.91613039  0.02515917  0.19191865    -0.62100
N1055       N  0.93336648  0.48716927  0.28154229    -0.06100
N1056       N  0.91674482  0.47712538  0.30326806    -0.58900
N1057       N  0.93323973  0.01623555  0.28127803    -0.07400
N1058       N  0.91650186  0.02653987  0.30286978    -0.61700
N1059       N  0.93326395  0.48629483  0.21372753    -0.06400
N1060       N  0.91611540  0.47574328  0.19262118    -0.58900
Mn1061     Mn  0.95724305  0.04112099  0.24696061     1.20200
Mn1062     Mn  0.95726206  0.46154209  0.24783699     1.10100
Cl1063     Cl  0.49706594  0.00133204  0.24753165    -0.86900
C1064       C  0.90564356  0.00021518  0.17908024     0.95500
C1065       C  0.90640758  0.50187866  0.31650072     0.95300
N1066       N  0.98245399  0.21789629  0.06155513    -0.07000
N1067       N  0.97232442  0.19647461  0.07851167    -0.59100
N1068       N  0.51142379  0.28586875  0.06100795    -0.06700
N1069       N  0.52159273  0.30731191  0.07799414    -0.61300
N1070       N  0.98235931  0.28583574  0.06108327    -0.06300
N1071       N  0.97214733  0.30728932  0.07800785    -0.59100
N1072       N  0.51151099  0.21792167  0.06146210    -0.06000
N1073       N  0.52175562  0.19651395  0.07836801    -0.61600
C1074       C  0.49705240  0.18321104  0.08880250     0.95100
C1075       C  0.99685085  0.32060808  0.08834169     0.94900
N1076       N  0.56044334  0.28494680  0.48244185    -0.07200
N1077       N  0.57831608  0.30557522  0.47212174    -0.59700
N1078       N  0.56026867  0.21746100  0.01197970    -0.05300
N1079       N  0.57725481  0.19608891  0.02218490    -0.61000
N1080       N  0.55999699  0.21715011  0.48294597    -0.07200
N1081       N  0.57678510  0.19554931  0.47282394    -0.60000
N1082       N  0.56046563  0.28519848  0.01147990    -0.05000
N1083       N  0.57827765  0.30600443  0.02149447    -0.61100
Mn1084     Mn  0.53656139  0.25166601  0.03712879     1.18400
C1085       C  0.58918372  0.31865016  0.49674492     0.97200
C1086       C  0.58734182  0.18248239  0.49751956     0.97900
N1087       N  0.93302562  0.28535062  0.01250524    -0.07300
N1088       N  0.91594056  0.30654479  0.02289966    -0.63600
N1089       N  0.93264692  0.21764580  0.48378510    -0.06100
N1090       N  0.91532189  0.19641266  0.47382322    -0.64200
N1091       N  0.93301146  0.21766512  0.01280628    -0.06800
N1092       N  0.91597158  0.19641154  0.02320785    -0.63800
N1093       N  0.93283634  0.28539736  0.48347643    -0.05700
N1094       N  0.91561120  0.30669199  0.47351838    -0.64500
Mn1095     Mn  0.95709900  0.25166943  0.03762742     1.10700
C1096       C  0.90527471  0.31975869  0.49837524     0.98500
C1097       C  0.90518127  0.18324034  0.49863805     0.98500
N1098       N  0.51041699  0.21687993  0.43411508    -0.06800
N1099       N  0.52041372  0.19539410  0.41710873    -0.62100
N1100       N  0.98158632  0.28481161  0.43373123    -0.06100
N1101       N  0.97124939  0.30586907  0.41648051    -0.58900
N1102       N  0.51065955  0.28482140  0.43349458    -0.07400
N1103       N  0.52068588  0.30595275  0.41608022    -0.61700
N1104       N  0.98134924  0.21697645  0.43426420    -0.06400
N1105       N  0.97098381  0.19555472  0.41734617    -0.58900
Mn1106     Mn  0.53602348  0.25097645  0.45757881     1.20200
Mn1107     Mn  0.95645214  0.25123832  0.45816499     1.10100
Cl1108     Cl  0.99654592  0.25144358  0.49761061    -0.86900
C1109       C  0.49559707  0.18216201  0.40685754     0.95500
C1110       C  0.99585556  0.31898145  0.40566509     0.95300
N1111       N  0.78141303  0.43820873  0.48320587    -0.07000
N1112       N  0.80284312  0.42121691  0.47311230    -0.59100
N1113       N  0.71331768  0.43732753  0.01146415    -0.06700
N1114       N  0.69256224  0.41931174  0.02122838    -0.61300
N1115       N  0.71376802  0.43740577  0.48243180    -0.06300
N1116       N  0.69335082  0.41943538  0.47185743    -0.59100
N1117       N  0.78096933  0.43786787  0.01223209    -0.06000
N1118       N  0.80206813  0.42059782  0.02248381    -0.61600
C1119       C  0.81564832  0.41046638  0.49783917     0.95100
C1120       C  0.68019710  0.40836995  0.49628777     0.94900
N1121       N  0.71252733  0.01569461  0.06116669    -0.07200
N1122       N  0.69099506  0.02584423  0.07800867    -0.59700
N1123       N  0.78034474  0.48667057  0.06167668    -0.05300
N1124       N  0.80167208  0.47638353  0.07865907    -0.61000
N1125       N  0.78044045  0.01573062  0.06177830    -0.07200
N1126       N  0.80184182  0.02580640  0.07884591    -0.60000
N1127       N  0.71246746  0.48663144  0.06095623    -0.05000
N1128       N  0.69093415  0.47641097  0.07774727    -0.61100
Mn1129     Mn  0.74670661  0.46150057  0.03725685     1.18400
C1130       C  0.67761289  0.00111027  0.08813549     0.97200
C1131       C  0.81501273  0.50103830  0.08915527     0.97900
N1132       N  0.71366731  0.48703118  0.43374227    -0.07300
N1133       N  0.69256960  0.47677542  0.41638777    -0.63600
N1134       N  0.78142156  0.01669970  0.43453158    -0.06100
N1135       N  0.80301859  0.02714334  0.41791475    -0.64200
N1136       N  0.78169458  0.48764386  0.43440580    -0.06800
N1137       N  0.80346163  0.47773135  0.41769724    -0.63800
N1138       N  0.71346383  0.01609079  0.43394627    -0.05700
N1139       N  0.69230387  0.02620605  0.41667471    -0.64500
Mn1140     Mn  0.74764110  0.46197574  0.45779174     1.10700
C1141       C  0.67932411  0.00145224  0.40596128     0.98500
C1142       C  0.81669778  0.50260012  0.40761096     0.98500
N1143       N  0.78063890  0.06527694  0.01287232    -0.06800
N1144       N  0.80196928  0.08245053  0.02302012    -0.62100
N1145       N  0.71261013  0.06505917  0.48362431    -0.06100
N1146       N  0.69101010  0.08188807  0.47360567    -0.58900
N1147       N  0.71269199  0.06502646  0.01265666    -0.07400
N1148       N  0.69116435  0.08178937  0.02297024    -0.61700
N1149       N  0.78046961  0.06544040  0.48384888    -0.06400
N1150       N  0.80160262  0.08268856  0.47363977    -0.58900
Mn1151     Mn  0.74663427  0.04109429  0.03780390     1.20200
Mn1152     Mn  0.74693711  0.04147362  0.45834863     1.10100
Cl1153     Cl  0.74695431  0.50150473  0.49780654    -0.86900
C1154       C  0.81491176  0.09310890  0.49825645     0.95500
C1155       C  0.67770988  0.09211695  0.49839706     0.95300
C1156       C  0.84776987  0.37472962  0.02455462    -0.22200
C1157       C  0.83974242  0.38845837  0.49797392    -0.10300
C1158       C  0.85413406  0.38007691  0.47170901     0.28600
C1159       C  0.87578783  0.35809533  0.47214444    -0.22200
C1160       C  0.88342212  0.34399084  0.49864256    -0.10300
C1161       C  0.86926646  0.35262087  0.02496508     0.28600
F1162       F  0.87543599  0.33917514  0.05100734    -0.20800
H1163       H  0.83692462  0.38062808  0.04504932     0.17000
H1164       H  0.88639091  0.35190957  0.45160606     0.17000
F1165       F  0.84720154  0.39285423  0.44552790    -0.20800
C1166       C  0.86929218  0.15110311  0.47219299    -0.22200
C1167       C  0.88324568  0.15908410  0.49869468    -0.10300
C1168       C  0.87528777  0.14446859  0.02493126     0.28600
C1169       C  0.85336990  0.12267779  0.02454007    -0.22200
C1170       C  0.83904269  0.11510031  0.49809200    -0.10300
C1171       C  0.84736822  0.12942716  0.47180019     0.28600
F1172       F  0.83385777  0.12318895  0.44576980    -0.20800
H1173       H  0.87490890  0.16209236  0.45170685     0.17000
H1174       H  0.84746555  0.11186253  0.04503876     0.17000
F1175       F  0.88852199  0.15121818  0.05097539    -0.20800
C1176       C  0.62499318  0.35089511  0.46991797    -0.22200
C1177       C  0.61186092  0.34219243  0.49663007    -0.10300
C1178       C  0.62117113  0.35566555  0.52307619     0.28600
C1179       C  0.64326541  0.37722270  0.52266194    -0.22200
C1180       C  0.65648192  0.38586839  0.49598847    -0.10300
C1181       C  0.64711116  0.37248097  0.46950412     0.28600
F1182       F  0.65948850  0.37985625  0.44322205    -0.20800
H1183       H  0.61835525  0.34077197  0.44926886     0.17000
H1184       H  0.65003030  0.38717113  0.54335555     0.17000
F1185       F  0.60897384  0.34815347  0.54940289    -0.20800
C1186       C  0.62020597  0.14740555  0.52453887    -0.22200
C1187       C  0.60894802  0.15790322  0.49763004    -0.10300
C1188       C  0.61935475  0.14539492  0.47111066     0.28600
C1189       C  0.64122446  0.12359509  0.47163718    -0.22200
C1190       C  0.65311260  0.11371425  0.49850075    -0.10300
C1191       C  0.64201128  0.12552967  0.52507304     0.28600
F1192       F  0.65253679  0.11647539  0.55161332    -0.20800
H1193       H  0.61248679  0.15648696  0.04529158     0.17000
H1194       H  0.64916829  0.11474564  0.45086985     0.17000
F1195       F  0.60881644  0.15444868  0.44458044    -0.20800
C1196       C  0.87478886  0.02886319  0.35295710    -0.22200
C1197       C  0.88508019  0.50195149  0.34135651    -0.10300
C1198       C  0.87395096  0.47534116  0.35303436     0.28600
C1199       C  0.85231967  0.47582328  0.37507408    -0.22200
C1200       C  0.84130697  0.50272292  0.38599141    -0.10000
C1201       C  0.85316906  0.02933791  0.37506309     0.28600
F1202       F  0.84358109  0.05587566  0.38525464    -0.20800
H1203       H  0.88312097  0.04966568  0.34457015     0.17000
H1204       H  0.84376855  0.45500129  0.38319072     0.17000
F1205       F  0.88341160  0.44876536  0.34281371    -0.20800
C1206       C  0.61904573  0.47581467  0.35354593    -0.22200
C1207       C  0.61140692  0.50236635  0.33945113    -0.10300
C1208       C  0.62574311  0.02864904  0.34801034     0.28600
C1209       C  0.64733723  0.02816916  0.37004303    -0.22200
C1210       C  0.65528855  0.00156196  0.38382736    -0.10300
C1211       C  0.64074717  0.47532303  0.37551188     0.28600
F1212       F  0.64742132  0.44916191  0.38851053    -0.20800
H1213       H  0.60829781  0.45528309  0.34746298     0.17000
H1214       H  0.65827295  0.04866606  0.37590062     0.17000
F1215       F  0.61954198  0.05474900  0.33466573    -0.20800
C1216       C  0.61796855  0.02671423  0.14114429    -0.22200
C1217       C  0.61006467  0.00004769  0.15488192    -0.10300
C1218       C  0.62367840  0.47366373  0.14559235     0.28600
C1219       C  0.64499972  0.47419025  0.12330508    -0.22200
C1220       C  0.65340960  0.00093677  0.11004981    -0.10300
C1221       C  0.63944582  0.02726479  0.11898051     0.28600
F1222       F  0.64664502  0.05361388  0.10661208    -0.20800
H1223       H  0.60775960  0.04730930  0.14779338     0.17000
H1224       H  0.65546124  0.45363498  0.11693744     0.17000
F1225       F  0.61713567  0.44741902  0.15851932    -0.20800
C1226       C  0.84971567  0.47389163  0.12230411    -0.22200
C1227       C  0.83953180  0.50083218  0.11077515    -0.10300
C1228       C  0.85234563  0.02734606  0.12085744     0.28600
C1229       C  0.87419048  0.02681993  0.14262690    -0.22200
C1230       C  0.88381271  0.99996272  0.15475227    -0.10300
C1231       C  0.87163707  0.47335754  0.14405304     0.28600
F1232       F  0.88040770  0.44682473  0.15488616    -0.20800
H1233       H  0.84035965  0.45313766  0.11483800     0.17000
H1234       H  0.88332597  0.04760907  0.15026735     0.17000
F1235       F  0.84361970  0.05388128  0.11001934    -0.20800
C1236       C  0.96974865  0.12449722  0.35155988    -0.22200
C1237       C  0.99675391  0.11455344  0.33987692    -0.10300
C1238       C  0.52327936  0.12598997  0.35145683     0.28600
C1239       C  0.52261846  0.14744498  0.37365881    -0.22200
C1240       C  0.49562284  0.15794222  0.38483630    -0.10300
C1241       C  0.96909136  0.14590418  0.37385704     0.28600
F1242       F  0.94246959  0.15497609  0.38429997    -0.20800
H1243       H  0.94900461  0.11593288  0.34321112     0.17000
H1244       H  0.54337902  0.15618932  0.38178118     0.17000
F1245       F  0.54992380  0.11689526  0.34109868    -0.20800
C1246       C  0.52251904  0.35647040  0.37527717    -0.22200
C1247       C  0.99573765  0.34329307  0.38383753    -0.10300
C1248       C  0.96926445  0.35307266  0.37076167     0.28600
C1249       C  0.96981655  0.37526842  0.34935191    -0.22200
C1250       C  0.99665875  0.38805912  0.34039872    -0.10300
C1251       C  0.52307518  0.37861110  0.35380115     0.28600
F1252       F  0.54952391  0.39050275  0.34608201    -0.20800
H1253       H  0.54319665  0.34945983  0.38504614     0.17000
H1254       H  0.94916480  0.38205336  0.33937265     0.17000
F1255       F  0.94285675  0.34081696  0.37804863    -0.20800
C1256       C  0.97122388  0.38123042  0.14039718    -0.22200
C1257       C  0.49761142  0.38819865  0.15519959    -0.10300
C1258       C  0.52377859  0.37344377  0.14712160     0.28600
C1259       C  0.52338826  0.35214648  0.12479904    -0.22200
C1260       C  0.99693753  0.34474082  0.11038493    -0.10300
C1261       C  0.97077157  0.35963920  0.11826812     0.28600
F1262       F  0.94469828  0.35326566  0.10485439    -0.20800
H1263       H  0.95078489  0.39227550  0.14618094     0.17000
H1264       H  0.54377978  0.34083986  0.11936870     0.17000
F1265       F  0.54960742  0.37871409  0.16143250    -0.20800
C1266       C  0.97098208  0.12451985  0.14263910    -0.22200
C1267       C  0.49785999  0.11406949  0.15405188    -0.10300
C1268       C  0.52451746  0.12559108  0.14278358     0.28600
C1269       C  0.52405566  0.14765529  0.12119518    -0.22200
C1270       C  0.49713324  0.15862218  0.11034231    -0.10300
C1271       C  0.97052505  0.14649285  0.12100369     0.28600
F1272       F  0.94396928  0.15604868  0.11090057    -0.20800
H1273       H  0.95014479  0.11594983  0.15074933     0.17000
H1274       H  0.54486960  0.15645604  0.11327510     0.17000
F1275       F  0.55107128  0.11598088  0.15285706    -0.20800
N1276       N  0.56096314  0.48629630  0.71409456    -0.07000
N1277       N  0.57809530  0.47577385  0.69297932    -0.59100
N1278       N  0.56096170  0.01625256  0.78134371    -0.06700
N1279       N  0.57858109  0.02670920  0.80210647    -0.61300
N1280       N  0.56085148  0.48718954  0.78176862    -0.06300
N1281       N  0.57833673  0.47729002  0.80286578    -0.59100
N1282       N  0.56088799  0.01534900  0.71362225    -0.06000
N1283       N  0.57792693  0.02520042  0.69212644    -0.61600
C1284       C  0.58846921  0.00027364  0.67936900     0.95100
C1285       C  0.58920188  0.50218236  0.81546067     0.94900
N1286       N  0.98245626  0.06548392  0.78063190    -0.07200
N1287       N  0.97222111  0.08258807  0.80193524    -0.59700
N1288       N  0.51181336  0.06461151  0.71294293    -0.05300
N1289       N  0.52221883  0.08161092  0.69168174    -0.61000
N1290       N  0.98273660  0.06469719  0.71278608    -0.07200
N1291       N  0.97279489  0.08179264  0.69138797    -0.60000
N1292       N  0.51152846  0.06542792  0.78074012    -0.05000
N1293       N  0.52165616  0.08251391  0.80210559    -0.61100
Mn1294     Mn  0.53691181  0.04105957  0.74716729     1.18400
C1295       C  0.99691388  0.09301663  0.81524116     0.97200
C1296       C  0.49766839  0.09212262  0.67829177     0.97900
N1297       N  0.51148656  0.43796773  0.78213420    -0.07300
N1298       N  0.52159604  0.42082422  0.80338832    -0.63600
N1299       N  0.98260912  0.43740015  0.71409719    -0.06100
N1300       N  0.97257838  0.42042782  0.69257178    -0.64200
N1301       N  0.51167641  0.43734283  0.71436953    -0.06800
N1302       N  0.52202000  0.42029721  0.69310480    -0.63800
N1303       N  0.98242121  0.43786048  0.78196761    -0.05700
N1304       N  0.97216636  0.42061359  0.80310307    -0.64500
Mn1305     Mn  0.53684924  0.46155958  0.74814508     1.10700
C1306       C  0.99684030  0.41022488  0.81640964     0.98500
C1307       C  0.49742559  0.40991985  0.67962139     0.98500
N1308       N  0.93327203  0.01535270  0.71333105    -0.06800
N1309       N  0.91613038  0.02515918  0.69191862    -0.62100
N1310       N  0.93336647  0.48716928  0.78154230    -0.06100
N1311       N  0.91674478  0.47712553  0.80326808    -0.58900
N1312       N  0.93323966  0.01623556  0.78127809    -0.07400
N1313       N  0.91650180  0.02653995  0.80286984    -0.61700
N1314       N  0.93326392  0.48629487  0.71372752    -0.06400
N1315       N  0.91611532  0.47574333  0.69262119    -0.58900
Mn1316     Mn  0.95724308  0.04112097  0.74696063     1.20200
Mn1317     Mn  0.95726199  0.46154209  0.74783698     1.10100
Cl1318     Cl  0.49706595  0.00133198  0.74753166    -0.86900
C1319       C  0.90564347  0.00021521  0.67908027     0.95500
C1320       C  0.90640751  0.50187878  0.81650073     0.95300
N1321       N  0.98245409  0.21789634  0.56155518    -0.07000
N1322       N  0.97232453  0.19647466  0.57851170    -0.59100
N1323       N  0.51142393  0.28586879  0.56100784    -0.06700
N1324       N  0.52159289  0.30731194  0.57799400    -0.61300
N1325       N  0.98235943  0.28583577  0.56108328    -0.06300
N1326       N  0.97214749  0.30728944  0.57800779    -0.59100
N1327       N  0.51151110  0.21792162  0.56146210    -0.06000
N1328       N  0.52175582  0.19651398  0.57836810    -0.61600
C1329       C  0.49705258  0.18321122  0.58880269     0.95100
C1330       C  0.99685103  0.32060815  0.58834155     0.94900
N1331       N  0.56044328  0.28494690  0.98244197    -0.07200
N1332       N  0.57831608  0.30557525  0.97212193    -0.59700
N1333       N  0.56026867  0.21746093  0.51197964    -0.05300
N1334       N  0.57725484  0.19608885  0.52218485    -0.61000
N1335       N  0.55999698  0.21715021  0.98294602    -0.07200
N1336       N  0.57678497  0.19554936  0.97282395    -0.60000
N1337       N  0.56046568  0.28519839  0.51147975    -0.05000
N1338       N  0.57827761  0.30600440  0.52149435    -0.61100
Mn1339     Mn  0.53656146  0.25166598  0.53712874     1.18400
C1340       C  0.58918369  0.31865028  0.99674510     0.97200
C1341       C  0.58734174  0.18248245  0.99751955     0.97900
N1342       N  0.93302569  0.28535062  0.51250523    -0.07300
N1343       N  0.91594069  0.30654480  0.52289971    -0.63600
N1344       N  0.93264684  0.21764583  0.98378503    -0.06100
N1345       N  0.91532198  0.19641258  0.97382317    -0.64200
N1346       N  0.93301153  0.21766511  0.51280633    -0.06800
N1347       N  0.91597171  0.19641148  0.52320792    -0.63800
N1348       N  0.93283624  0.28539731  0.98347644    -0.05700
N1349       N  0.91561119  0.30669201  0.97351834    -0.64500
Mn1350     Mn  0.95709910  0.25166947  0.53762742     1.10700
C1351       C  0.90527460  0.31975869  0.99837516     0.98500
C1352       C  0.90518121  0.18324034  0.99863798     0.98500
N1353       N  0.51041698  0.21687999  0.93411507    -0.06800
N1354       N  0.52041373  0.19539425  0.91710864    -0.62100
N1355       N  0.98158626  0.28481168  0.93373125    -0.06100
N1356       N  0.97124931  0.30586916  0.91648055    -0.58900
N1357       N  0.51065951  0.28482145  0.93349458    -0.07400
N1358       N  0.52068581  0.30595296  0.91608043    -0.61700
N1359       N  0.98134922  0.21697658  0.93426415    -0.06400
N1360       N  0.97098382  0.19555486  0.91734613    -0.58900
Mn1361     Mn  0.53602347  0.25097649  0.95757887     1.20200
Mn1362     Mn  0.95645211  0.25123836  0.95816498     1.10100
Cl1363     Cl  0.99654588  0.25144360  0.99761066    -0.86900
C1364       C  0.49559709  0.18216216  0.90685743     0.95500
C1365       C  0.99585545  0.31898153  0.90566511     0.95300
N1366       N  0.78141296  0.43820868  0.98320593    -0.07000
N1367       N  0.80284302  0.42121682  0.97311231    -0.59100
N1368       N  0.71331764  0.43732752  0.51146398    -0.06700
N1369       N  0.69256221  0.41931167  0.52122823    -0.61300
N1370       N  0.71376794  0.43740587  0.98243193    -0.06300
N1371       N  0.69335081  0.41943540  0.97185756    -0.59100
N1372       N  0.78096935  0.43786785  0.51223202    -0.06000
N1373       N  0.80206821  0.42059789  0.52248382    -0.61600
C1374       C  0.81564823  0.41046628  0.99783913     0.95100
C1375       C  0.68019707  0.40837002  0.99628790     0.94900
N1376       N  0.71252735  0.01569461  0.56116663    -0.07200
N1377       N  0.69099494  0.02584422  0.57800849    -0.59700
N1378       N  0.78034472  0.48667053  0.56167654    -0.05300
N1379       N  0.80167204  0.47638348  0.57865897    -0.61000
N1380       N  0.78044043  0.01573063  0.56177822    -0.07200
N1381       N  0.80184178  0.02580641  0.57884584    -0.60000
N1382       N  0.71246740  0.48663143  0.56095602    -0.05000
N1383       N  0.69093416  0.47641097  0.57774718    -0.61100
Mn1384     Mn  0.74670659  0.46150053  0.53725667     1.18400
C1385       C  0.67761281  0.00111022  0.58813528     0.97200
C1386       C  0.81501274  0.50103826  0.58915515     0.97900
N1387       N  0.71366725  0.48703121  0.93374242    -0.07300
N1388       N  0.69256954  0.47677539  0.91638791    -0.63600
N1389       N  0.78142138  0.01669967  0.93453168    -0.06100
N1390       N  0.80301829  0.02714336  0.91791479    -0.64200
N1391       N  0.78169447  0.48764393  0.93440588    -0.06800
N1392       N  0.80346148  0.47773138  0.91769725    -0.63800
N1393       N  0.71346365  0.01609078  0.93394641    -0.05700
N1394       N  0.69230370  0.02620602  0.91667484    -0.64500
Mn1395     Mn  0.74764104  0.46197579  0.95779185     1.10700
C1396       C  0.67932391  0.00145222  0.90596143     0.98500
C1397       C  0.81669764  0.50260017  0.90761104     0.98500
N1398       N  0.78063892  0.06527696  0.51287223    -0.06800
N1399       N  0.80196932  0.08245046  0.52302016    -0.62100
N1400       N  0.71261006  0.06505923  0.98362444    -0.06100
N1401       N  0.69101006  0.08188815  0.97360583    -0.58900
N1402       N  0.71269212  0.06502650  0.51265649    -0.07400
N1403       N  0.69116437  0.08178930  0.52297005    -0.61700
N1404       N  0.78046951  0.06544042  0.98384896    -0.06400
N1405       N  0.80160247  0.08268861  0.97363983    -0.58900
Mn1406     Mn  0.74663430  0.04109429  0.53780377     1.20200
Mn1407     Mn  0.74693700  0.04147361  0.95834875     1.10100
Cl1408     Cl  0.74695428  0.50150472  0.99780663    -0.86900
C1409       C  0.81491162  0.09310911  0.99825643     0.95500
C1410       C  0.67770981  0.09211702  0.99839723     0.95300
C1411       C  0.84776984  0.37472957  0.52455471    -0.22200
C1412       C  0.83974234  0.38845834  0.99797385    -0.10300
C1413       C  0.85413380  0.38007678  0.97170887     0.28600
C1414       C  0.87578758  0.35809530  0.97214429    -0.22200
C1415       C  0.88342197  0.34399085  0.99864240    -0.10300
C1416       C  0.86926641  0.35262074  0.52496515     0.28600
F1417       F  0.87543577  0.33917488  0.55100735    -0.20800
H1418       H  0.83692450  0.38062789  0.54504926     0.17000
H1419       H  0.88639036  0.35190916  0.95160571     0.17000
F1420       F  0.84720123  0.39285405  0.94552777    -0.20800
C1421       C  0.86929180  0.15110350  0.97219290    -0.22200
C1422       C  0.88324562  0.15908415  0.99869455    -0.10300
C1423       C  0.87528743  0.14446890  0.52493149     0.28600
C1424       C  0.85336965  0.12267798  0.52454028    -0.22200
C1425       C  0.83904261  0.11510047  0.99809188    -0.10300
C1426       C  0.84736779  0.12942763  0.97180017     0.28600
F1427       F  0.83385699  0.12318974  0.94576989    -0.20800
H1428       H  0.87490849  0.16209275  0.95170690     0.17000
H1429       H  0.84746498  0.11186313  0.54503914     0.17000
F1430       F  0.88852131  0.15121884  0.55097572    -0.20800
C1431       C  0.62499299  0.35089524  0.96991817    -0.22200
C1432       C  0.61186096  0.34219243  0.99663022    -0.10300
C1433       C  0.62117162  0.35566533  0.02307655     0.28600
C1434       C  0.64326576  0.37722244  0.02266216    -0.22200
C1435       C  0.65648200  0.38586835  0.99598880    -0.10300
C1436       C  0.64711087  0.37248110  0.96950424     0.28600
F1437       F  0.65948805  0.37985667  0.94322216    -0.20800
H1438       H  0.61835437  0.34077207  0.94926818     0.17000
H1439       H  0.65003135  0.38717132  0.04335706     0.17000
F1440       F  0.60897456  0.34815288  0.04940317    -0.20800
C1441       C  0.62020577  0.14740556  0.02453888    -0.22200
C1442       C  0.60894791  0.15790328  0.99763011    -0.10300
C1443       C  0.61935479  0.14539499  0.97111064     0.28600
C1444       C  0.64122447  0.12359521  0.97163716    -0.22200
C1445       C  0.65311255  0.11371437  0.99850078    -0.10300
C1446       C  0.64201106  0.12552975  0.02507320     0.28600
F1447       F  0.65253665  0.11647538  0.05161343    -0.20800
H1448       H  0.61248731  0.15648649  0.54529073     0.17000
H1449       H  0.64916845  0.11474571  0.95086941     0.17000
F1450       F  0.60881661  0.15444888  0.94458047    -0.20800
C1451       C  0.87478870  0.02886333  0.85295713    -0.22200
C1452       C  0.88508008  0.50195150  0.84135655    -0.10300
C1453       C  0.87395083  0.47534112  0.85303442     0.28600
C1454       C  0.85231958  0.47582327  0.87507410    -0.22200
C1455       C  0.84130682  0.50272287  0.88599145    -0.10000
C1456       C  0.85316879  0.02933791  0.87506312     0.28600
F1457       F  0.84358089  0.05587566  0.88525466    -0.20800
H1458       H  0.88312044  0.04966560  0.84457017     0.17000
H1459       H  0.84376837  0.45500058  0.88319104     0.17000
F1460       F  0.88341161  0.44876541  0.84281372    -0.20800
C1461       C  0.61904575  0.47581463  0.85354597    -0.22200
C1462       C  0.61140684  0.50236634  0.83945125    -0.10300
C1463       C  0.62574304  0.02864907  0.84801046     0.28600
C1464       C  0.64733705  0.02816922  0.87004320    -0.22200
C1465       C  0.65528844  0.00156202  0.88382742    -0.10300
C1466       C  0.64074709  0.47532303  0.87551201     0.28600
F1467       F  0.64742128  0.44916185  0.88851054    -0.20800
H1468       H  0.60829801  0.45528312  0.84746307     0.17000
H1469       H  0.65827302  0.04866660  0.87590102     0.17000
F1470       F  0.61954182  0.05474896  0.83466586    -0.20800
C1471       C  0.61796860  0.02671413  0.64114424    -0.22200
C1472       C  0.61006459  0.00004757  0.65488181    -0.10300
C1473       C  0.62367815  0.47366372  0.64559208     0.28600
C1474       C  0.64499952  0.47419026  0.62330484    -0.22200
C1475       C  0.65340956  0.00093664  0.61004968    -0.10300
C1476       C  0.63944582  0.02726471  0.61898042     0.28600
F1477       F  0.64664513  0.05361388  0.60661217    -0.20800
H1478       H  0.60775988  0.04730929  0.64779358     0.17000
H1479       H  0.65546068  0.45363493  0.61693690     0.17000
F1480       F  0.61713541  0.44741898  0.65851895    -0.20800
C1481       C  0.84971564  0.47389165  0.62230414    -0.22200
C1482       C  0.83953176  0.50083216  0.61077516    -0.10300
C1483       C  0.85234563  0.02734612  0.62085740     0.28600
C1484       C  0.87419049  0.02681999  0.64262688    -0.22200
C1485       C  0.88381265  0.99996278  0.65475231    -0.10300
C1486       C  0.87163708  0.47335757  0.64405303     0.28600
F1487       F  0.88040765  0.44682480  0.65488616    -0.20800
H1488       H  0.84035959  0.45313771  0.61483808     0.17000
H1489       H  0.88332585  0.04760924  0.65026760     0.17000
F1490       F  0.84361961  0.05388130  0.61001934    -0.20800
C1491       C  0.96974880  0.12449740  0.85155974    -0.22200
C1492       C  0.99675398  0.11455349  0.83987681    -0.10300
C1493       C  0.52327936  0.12599003  0.85145674     0.28600
C1494       C  0.52261852  0.14744505  0.87365875    -0.22200
C1495       C  0.49562287  0.15794243  0.88483611    -0.10300
C1496       C  0.96909150  0.14590433  0.87385695     0.28600
F1497       F  0.94246967  0.15497622  0.88429992    -0.20800
H1498       H  0.94900470  0.11593316  0.84321088     0.17000
H1499       H  0.54337884  0.15618949  0.88178077     0.17000
F1500       F  0.54992383  0.11689528  0.84109880    -0.20800
C1501       C  0.52251905  0.35647065  0.87527740    -0.22200
C1502       C  0.99573765  0.34329323  0.88383766    -0.10300
C1503       C  0.96926431  0.35307270  0.87076157     0.28600
C1504       C  0.96981646  0.37526838  0.84935186    -0.22200
C1505       C  0.99665856  0.38805919  0.84039875    -0.10300
C1506       C  0.52307521  0.37861129  0.85380139     0.28600
F1507       F  0.54952382  0.39050313  0.84608229    -0.20800
H1508       H  0.54319756  0.34945982  0.88504686     0.17000
H1509       H  0.94916392  0.38205322  0.83937198     0.17000
F1510       F  0.94285664  0.34081686  0.87804848    -0.20800
C1511       C  0.97122398  0.38123042  0.64039705    -0.22200
C1512       C  0.49761142  0.38819858  0.65519959    -0.10300
C1513       C  0.52377865  0.37344379  0.64712156     0.28600
C1514       C  0.52338834  0.35214653  0.62479900    -0.22200
C1515       C  0.99693775  0.34474082  0.61038483    -0.10300
C1516       C  0.97077169  0.35963918  0.61826802     0.28600
F1517       F  0.94469836  0.35326562  0.60485438    -0.20800
H1518       H  0.95078495  0.39227497  0.64618125     0.17000
H1519       H  0.54378002  0.34083956  0.61936889     0.17000
F1520       F  0.54960741  0.37871420  0.66143255    -0.20800
C1521       C  0.97098232  0.12451997  0.64263922    -0.22200
C1522       C  0.49786022  0.11406958  0.65405199    -0.10300
C1523       C  0.52451762  0.12559118  0.64278381     0.28600
C1524       C  0.52405586  0.14765544  0.62119544    -0.22200
C1525       C  0.49713343  0.15862236  0.61034247    -0.10300
C1526       C  0.97052529  0.14649295  0.62100377     0.28600
F1527       F  0.94396948  0.15604864  0.61090060    -0.20800
H1528       H  0.95014548  0.11594959  0.65074875     0.17000
H1529       H  0.54486966  0.15645606  0.61327555     0.17000
F1530       F  0.55107145  0.11598087  0.65285715    -0.20800
N1531       N  0.56096314  0.98629640  0.21409458    -0.07000
N1532       N  0.57809534  0.97577395  0.19297931    -0.59100
N1533       N  0.56096173  0.51625265  0.28134368    -0.06700
N1534       N  0.57858111  0.52670930  0.30210640    -0.61300
N1535       N  0.56085153  0.98718956  0.28176863    -0.06300
N1536       N  0.57833676  0.97729007  0.30286578    -0.59100
N1537       N  0.56088806  0.51534904  0.21362235    -0.06000
N1538       N  0.57792691  0.52520053  0.19212649    -0.61600
C1539       C  0.58846935  0.50027372  0.17936922     0.95100
C1540       C  0.58920183  0.00218245  0.31546070     0.94900
N1541       N  0.98245619  0.56548397  0.28063190    -0.07200
N1542       N  0.97222101  0.58258804  0.30193530    -0.59700
N1543       N  0.51181334  0.56461154  0.21294295    -0.05300
N1544       N  0.52221879  0.58161098  0.19168177    -0.61000
N1545       N  0.98273657  0.56469722  0.21278605    -0.07200
N1546       N  0.97279488  0.58179258  0.19138786    -0.60000
N1547       N  0.51152842  0.56542794  0.28074011    -0.05000
N1548       N  0.52165611  0.58251396  0.30210553    -0.61100
Mn1549     Mn  0.53691184  0.54105964  0.24716732     1.18400
C1550       C  0.99691381  0.59301662  0.31524119     0.97200
C1551       C  0.49766837  0.59212265  0.17829173     0.97900
N1552       N  0.51148660  0.93796771  0.28213416    -0.07300
N1553       N  0.52159618  0.92082427  0.30338827    -0.63600
N1554       N  0.98260923  0.93740025  0.21409718    -0.06100
N1555       N  0.97257849  0.92042781  0.19257184    -0.64200
N1556       N  0.51167642  0.93734295  0.21436945    -0.06800
N1557       N  0.52202003  0.92029725  0.19310475    -0.63800
N1558       N  0.98242132  0.93786054  0.28196757    -0.05700
N1559       N  0.97216642  0.92061360  0.30310303    -0.64500
Mn1560     Mn  0.53684924  0.96155961  0.24814504     1.10700
C1561       C  0.99684038  0.91022487  0.31640954     0.98500
C1562       C  0.49742565  0.90991988  0.17962137     0.98500
N1563       N  0.93327208  0.51535264  0.21333103    -0.06800
N1564       N  0.91613039  0.52515915  0.19191867    -0.62100
N1565       N  0.93336655  0.98716930  0.28154227    -0.06100
N1566       N  0.91674492  0.97712545  0.30326803    -0.58900
N1567       N  0.93323964  0.51623549  0.28127800    -0.07400
N1568       N  0.91650183  0.52653987  0.30286980    -0.61700
N1569       N  0.93326409  0.98629494  0.21372750    -0.06400
N1570       N  0.91611546  0.97574330  0.19262120    -0.58900
Mn1571     Mn  0.95724308  0.54112096  0.24696060     1.20200
Mn1572     Mn  0.95726210  0.96154214  0.24783696     1.10100
Cl1573     Cl  0.49706600  0.50133199  0.24753165    -0.86900
C1574       C  0.90564348  0.50021520  0.17908024     0.95500
C1575       C  0.90640754  0.00187868  0.31650070     0.95300
N1576       N  0.98245405  0.71789622  0.06155513    -0.07000
N1577       N  0.97232448  0.69647452  0.07851164    -0.59100
N1578       N  0.51142381  0.78586871  0.06100795    -0.06700
N1579       N  0.52159273  0.80731198  0.07799399    -0.61300
N1580       N  0.98235934  0.78583573  0.06108332    -0.06300
N1581       N  0.97214738  0.80728932  0.07800789    -0.59100
N1582       N  0.51151102  0.71792158  0.06146214    -0.06000
N1583       N  0.52175572  0.69651393  0.07836809    -0.61600
C1584       C  0.49705249  0.68321107  0.08880255     0.95100
C1585       C  0.99685090  0.82060804  0.08834165     0.94900
N1586       N  0.56044331  0.78494687  0.48244184    -0.07200
N1587       N  0.57831601  0.80557527  0.47212170    -0.59700
N1588       N  0.56026864  0.71746097  0.01197971    -0.05300
N1589       N  0.57725484  0.69608892  0.02218491    -0.61000
N1590       N  0.55999702  0.71715016  0.48294596    -0.07200
N1591       N  0.57678502  0.69554929  0.47282393    -0.60000
N1592       N  0.56046567  0.78519843  0.01147990    -0.05000
N1593       N  0.57827762  0.80600441  0.02149448    -0.61100
Mn1594     Mn  0.53656141  0.75166598  0.03712880     1.18400
C1595       C  0.58918372  0.81865019  0.49674491     0.97200
C1596       C  0.58734170  0.68248230  0.49751952     0.97900
N1597       N  0.93302570  0.78535063  0.01250526    -0.07300
N1598       N  0.91594066  0.80654483  0.02289970    -0.63600
N1599       N  0.93264698  0.71764582  0.48378512    -0.06100
N1600       N  0.91532197  0.69641269  0.47382321    -0.64200
N1601       N  0.93301164  0.71766505  0.01280625    -0.06800
N1602       N  0.91597164  0.69641153  0.02320781    -0.63800
N1603       N  0.93283633  0.78539732  0.48347649    -0.05700
N1604       N  0.91561128  0.80669200  0.47351839    -0.64500
Mn1605     Mn  0.95709906  0.75166941  0.03762742     1.10700
C1606       C  0.90527463  0.81975856  0.49837527     0.98500
C1607       C  0.90518124  0.68324039  0.49863805     0.98500
N1608       N  0.51041694  0.71687995  0.43411511    -0.06800
N1609       N  0.52041367  0.69539414  0.41710877    -0.62100
N1610       N  0.98158632  0.78481165  0.43373123    -0.06100
N1611       N  0.97124937  0.80586918  0.41648056    -0.58900
N1612       N  0.51065950  0.78482142  0.43349459    -0.07400
N1613       N  0.52068582  0.80595285  0.41608031    -0.61700
N1614       N  0.98134925  0.71697657  0.43426414    -0.06400
N1615       N  0.97098377  0.69555475  0.41734620    -0.58900
Mn1616     Mn  0.53602349  0.75097643  0.45757881     1.20200
Mn1617     Mn  0.95645216  0.75123831  0.45816501     1.10100
Cl1618     Cl  0.99654595  0.75144357  0.49761061    -0.86900
C1619       C  0.49559700  0.68216206  0.40685754     0.95500
C1620       C  0.99585551  0.81898150  0.40566502     0.95300
N1621       N  0.78141310  0.93820872  0.48320591    -0.07000
N1622       N  0.80284317  0.92121692  0.47311229    -0.59100
N1623       N  0.71331757  0.93732754  0.01146416    -0.06700
N1624       N  0.69256219  0.91931170  0.02122838    -0.61300
N1625       N  0.71376808  0.93740584  0.48243178    -0.06300
N1626       N  0.69335091  0.91943538  0.47185735    -0.59100
N1627       N  0.78096934  0.93786783  0.01223208    -0.06000
N1628       N  0.80206822  0.92059786  0.02248383    -0.61600
C1629       C  0.81564828  0.91046631  0.49783918     0.95100
C1630       C  0.68019709  0.90837004  0.49628765     0.94900
N1631       N  0.71252732  0.51569460  0.06116670    -0.07200
N1632       N  0.69099501  0.52584425  0.07800864    -0.59700
N1633       N  0.78034473  0.98667046  0.06167669    -0.05300
N1634       N  0.80167208  0.97638346  0.07865912    -0.61000
N1635       N  0.78044047  0.51573072  0.06177834    -0.07200
N1636       N  0.80184183  0.52580648  0.07884598    -0.60000
N1637       N  0.71246745  0.98663144  0.06095622    -0.05000
N1638       N  0.69093415  0.97641094  0.07774724    -0.61100
Mn1639     Mn  0.74670657  0.96150052  0.03725681     1.18400
C1640       C  0.67761286  0.50111029  0.08813552     0.97200
C1641       C  0.81501272  0.00103824  0.08915530     0.97900
N1642       N  0.71366743  0.98703120  0.43374224    -0.07300
N1643       N  0.69256968  0.97677540  0.41638775    -0.63600
N1644       N  0.78142147  0.51669966  0.43453158    -0.06100
N1645       N  0.80301849  0.52714329  0.41791481    -0.64200
N1646       N  0.78169466  0.98764395  0.43440587    -0.06800
N1647       N  0.80346170  0.97773133  0.41769731    -0.63800
N1648       N  0.71346375  0.51609082  0.43394628    -0.05700
N1649       N  0.69230387  0.52620609  0.41667466    -0.64500
Mn1650     Mn  0.74764117  0.96197578  0.45779178     1.10700
C1651       C  0.67932403  0.50145228  0.40596131     0.98500
C1652       C  0.81669785  0.00260011  0.40761099     0.98500
N1653       N  0.78063887  0.56527704  0.01287233    -0.06800
N1654       N  0.80196939  0.58245046  0.02302016    -0.62100
N1655       N  0.71261016  0.56505921  0.48362433    -0.06100
N1656       N  0.69101012  0.58188817  0.47360568    -0.58900
N1657       N  0.71269200  0.56502649  0.01265663    -0.07400
N1658       N  0.69116431  0.58178939  0.02297024    -0.61700
N1659       N  0.78046959  0.56544047  0.48384885    -0.06400
N1660       N  0.80160264  0.58268857  0.47363976    -0.58900
Mn1661     Mn  0.74663429  0.54109432  0.03780392     1.20200
Mn1662     Mn  0.74693710  0.54147365  0.45834864     1.10100
Cl1663     Cl  0.74695430  0.00150473  0.49780656    -0.86900
C1664       C  0.81491174  0.59310900  0.49825643     0.95500
C1665       C  0.67770987  0.59211699  0.49839706     0.95300
C1666       C  0.84776986  0.87472963  0.02455461    -0.22200
C1667       C  0.83974242  0.88845841  0.49797390    -0.10300
C1668       C  0.85413402  0.88007694  0.47170902     0.28600
C1669       C  0.87578776  0.85809530  0.47214444    -0.22200
C1670       C  0.88342204  0.84399076  0.49864256    -0.10300
C1671       C  0.86926649  0.85262091  0.02496511     0.28600
F1672       F  0.87543600  0.83917516  0.05100737    -0.20800
H1673       H  0.83692473  0.88062815  0.04504944     0.17000
H1674       H  0.88639078  0.85190945  0.45160612     0.17000
F1675       F  0.84720159  0.89285426  0.44552790    -0.20800
C1676       C  0.86929216  0.65110318  0.47219301    -0.22200
C1677       C  0.88324565  0.65908415  0.49869469    -0.10300
C1678       C  0.87528778  0.64446864  0.02493119     0.28600
C1679       C  0.85336996  0.62267767  0.02453999    -0.22200
C1680       C  0.83904275  0.61510037  0.49809196    -0.10300
C1681       C  0.84736827  0.62942725  0.47180012     0.28600
F1682       F  0.83385785  0.62318901  0.44576973    -0.20800
H1683       H  0.87490925  0.66209234  0.45170663     0.17000
H1684       H  0.84746592  0.61186271  0.04503798     0.17000
F1685       F  0.88852206  0.65121818  0.05097538    -0.20800
C1686       C  0.62499314  0.85089497  0.46991798    -0.22200
C1687       C  0.61186091  0.84219243  0.49663007    -0.10300
C1688       C  0.62117125  0.85566564  0.52307626     0.28600
C1689       C  0.64326548  0.87722279  0.52266185    -0.22200
C1690       C  0.65648201  0.88586832  0.49598844    -0.10300
C1691       C  0.64711108  0.87248090  0.46950399     0.28600
F1692       F  0.65948856  0.87985619  0.44322195    -0.20800
H1693       H  0.61835496  0.84077151  0.44926847     0.17000
H1694       H  0.65003073  0.88717165  0.54335606     0.17000
F1695       F  0.60897396  0.84815354  0.54940290    -0.20800
C1696       C  0.62020588  0.64740559  0.52453883    -0.22200
C1697       C  0.60894800  0.65790324  0.49762999    -0.10300
C1698       C  0.61935475  0.64539495  0.47111063     0.28600
C1699       C  0.64122444  0.62359514  0.47163715    -0.22200
C1700       C  0.65311259  0.61371436  0.49850077    -0.10300
C1701       C  0.64201119  0.62552972  0.52507308     0.28600
F1702       F  0.65253678  0.61647547  0.55161334    -0.20800
H1703       H  0.61248680  0.65648652  0.04529136     0.17000
H1704       H  0.64916817  0.61474578  0.45087000     0.17000
F1705       F  0.60881659  0.65444880  0.44458041    -0.20800
C1706       C  0.87478893  0.52886325  0.35295714    -0.22200
C1707       C  0.88508016  0.00195143  0.34135652    -0.10300
C1708       C  0.87395093  0.97534111  0.35303437     0.28600
C1709       C  0.85231972  0.97582326  0.37507408    -0.22200
C1710       C  0.84130700  0.00272288  0.38599140    -0.10000
C1711       C  0.85316903  0.52933794  0.37506309     0.28600
F1712       F  0.84358104  0.55587564  0.38525468    -0.20800
H1713       H  0.88312091  0.54966588  0.34456989     0.17000
H1714       H  0.84376879  0.95500093  0.38319108     0.17000
F1715       F  0.88341161  0.94876537  0.34281366    -0.20800
C1716       C  0.61904580  0.97581463  0.35354603    -0.22200
C1717       C  0.61140684  0.00236627  0.33945121    -0.10300
C1718       C  0.62574310  0.52864902  0.34801036     0.28600
C1719       C  0.64733729  0.52816919  0.37004307    -0.22200
C1720       C  0.65528853  0.50156193  0.38382737    -0.10300
C1721       C  0.64074723  0.97532294  0.37551186     0.28600
F1722       F  0.64742141  0.94916184  0.38851048    -0.20800
H1723       H  0.60829761  0.95528241  0.34746310     0.17000
H1724       H  0.65827265  0.54866558  0.37590072     0.17000
F1725       F  0.61954197  0.55474896  0.33466572    -0.20800
C1726       C  0.61796853  0.52671424  0.14114430    -0.22200
C1727       C  0.61006464  0.50004769  0.15488196    -0.10300
C1728       C  0.62367849  0.97366375  0.14559231     0.28600
C1729       C  0.64499981  0.97419032  0.12330503    -0.22200
C1730       C  0.65340951  0.50093680  0.11004987    -0.10300
C1731       C  0.63944577  0.52726482  0.11898055     0.28600
F1732       F  0.64664496  0.55361385  0.10661207    -0.20800
H1733       H  0.60775973  0.54730962  0.14779371     0.17000
H1734       H  0.65546149  0.95363459  0.11693714     0.17000
F1735       F  0.61713580  0.94741909  0.15851938    -0.20800
C1736       C  0.84971569  0.97389164  0.12230421    -0.22200
C1737       C  0.83953188  0.00083223  0.11077519    -0.10300
C1738       C  0.85234562  0.52734602  0.12085739     0.28600
C1739       C  0.87419045  0.52681997  0.14262687    -0.22200
C1740       C  0.88381264  0.49996270  0.15475223    -0.10300
C1741       C  0.87163713  0.97335762  0.14405314     0.28600
F1742       F  0.88040766  0.94682476  0.15488616    -0.20800
H1743       H  0.84035995  0.95313828  0.11483834     0.17000
H1744       H  0.88332556  0.54760883  0.15026735     0.17000
F1745       F  0.84361970  0.55388128  0.11001940    -0.20800
C1746       C  0.96974863  0.62449722  0.35155985    -0.22200
C1747       C  0.99675387  0.61455342  0.33987694    -0.10300
C1748       C  0.52327933  0.62599006  0.35145678     0.28600
C1749       C  0.52261841  0.64744502  0.37365881    -0.22200
C1750       C  0.49562280  0.65794224  0.38483629    -0.10300
C1751       C  0.96909132  0.64590413  0.37385702     0.28600
F1752       F  0.94246955  0.65497600  0.38429997    -0.20800
H1753       H  0.94900446  0.61593270  0.34321114     0.17000
H1754       H  0.54337905  0.65618944  0.38178119     0.17000
F1755       F  0.54992381  0.61689536  0.34109870    -0.20800
C1756       C  0.52251913  0.85647039  0.37527719    -0.22200
C1757       C  0.99573762  0.84329314  0.38383745    -0.10300
C1758       C  0.96926435  0.85307282  0.37076164     0.28600
C1759       C  0.96981649  0.87526848  0.34935187    -0.22200
C1760       C  0.99665868  0.88805914  0.34039864    -0.10300
C1761       C  0.52307530  0.87861111  0.35380118     0.28600
F1762       F  0.54952396  0.89050278  0.34608203    -0.20800
H1763       H  0.54319688  0.84945956  0.38504617     0.17000
H1764       H  0.94916414  0.88205361  0.33937251     0.17000
F1765       F  0.94285670  0.84081705  0.37804863    -0.20800
C1766       C  0.97122397  0.88123037  0.14039710    -0.22200
C1767       C  0.49761145  0.88819856  0.15519962    -0.10300
C1768       C  0.52377860  0.87344373  0.14712160     0.28600
C1769       C  0.52338820  0.85214644  0.12479902    -0.22200
C1770       C  0.99693757  0.84474072  0.11038489    -0.10300
C1771       C  0.97077163  0.85963911  0.11826805     0.28600
F1772       F  0.94469831  0.85326560  0.10485440    -0.20800
H1773       H  0.95078517  0.89227501  0.14618102     0.17000
H1774       H  0.54377973  0.84083973  0.11936878     0.17000
F1775       F  0.54960741  0.87871400  0.16143255    -0.20800
C1776       C  0.97098224  0.62451992  0.14263915    -0.22200
C1777       C  0.49786012  0.61406948  0.15405182    -0.10300
C1778       C  0.52451763  0.62559117  0.14278365     0.28600
C1779       C  0.52405580  0.64765528  0.12119523    -0.22200
C1780       C  0.49713347  0.65862230  0.11034233    -0.10300
C1781       C  0.97052524  0.64649285  0.12100367     0.28600
F1782       F  0.94396943  0.65604859  0.11090056    -0.20800
H1783       H  0.95014515  0.61594961  0.15074912     0.17000
H1784       H  0.54487050  0.65645611  0.11327492     0.17000
F1785       F  0.55107140  0.61598076  0.15285708    -0.20800
N1786       N  0.56096315  0.98629631  0.71409454    -0.07000
N1787       N  0.57809530  0.97577384  0.69297930    -0.59100
N1788       N  0.56096175  0.51625260  0.78134367    -0.06700
N1789       N  0.57858111  0.52670925  0.80210642    -0.61300
N1790       N  0.56085150  0.98718952  0.78176862    -0.06300
N1791       N  0.57833669  0.97728999  0.80286581    -0.59100
N1792       N  0.56088799  0.51534900  0.71362225    -0.06000
N1793       N  0.57792687  0.52520049  0.69212643    -0.61600
C1794       C  0.58846917  0.50027369  0.67936903     0.95100
C1795       C  0.58920185  0.00218234  0.81546070     0.94900
N1796       N  0.98245630  0.56548390  0.78063188    -0.07200
N1797       N  0.97222110  0.58258803  0.80193526    -0.59700
N1798       N  0.51181334  0.56461157  0.71294290    -0.05300
N1799       N  0.52221881  0.58161098  0.69168174    -0.61000
N1800       N  0.98273661  0.56469720  0.71278599    -0.07200
N1801       N  0.97279491  0.58179264  0.69138792    -0.60000
N1802       N  0.51152845  0.56542796  0.78074004    -0.05000
N1803       N  0.52165616  0.58251391  0.80210554    -0.61100
Mn1804     Mn  0.53691184  0.54105959  0.74716726     1.18400
C1805       C  0.99691388  0.59301660  0.81524116     0.97200
C1806       C  0.49766838  0.59212277  0.67829179     0.97900
N1807       N  0.51148659  0.93796773  0.78213422    -0.07300
N1808       N  0.52159614  0.92082428  0.80338832    -0.63600
N1809       N  0.98260915  0.93740025  0.71409718    -0.06100
N1810       N  0.97257846  0.92042789  0.69257175    -0.64200
N1811       N  0.51167638  0.93734292  0.71436951    -0.06800
N1812       N  0.52201998  0.92029727  0.69310478    -0.63800
N1813       N  0.98242124  0.93786050  0.78196760    -0.05700
N1814       N  0.97216636  0.92061367  0.80310314    -0.64500
Mn1815     Mn  0.53684923  0.96155958  0.74814505     1.10700
C1816       C  0.99684032  0.91022481  0.81640955     0.98500
C1817       C  0.49742562  0.90991990  0.67962137     0.98500
N1818       N  0.93327213  0.51535265  0.71333098    -0.06800
N1819       N  0.91613038  0.52515914  0.69191863    -0.62100
N1820       N  0.93336643  0.98716934  0.78154232    -0.06100
N1821       N  0.91674480  0.97712545  0.80326811    -0.58900
N1822       N  0.93323967  0.51623552  0.78127796    -0.07400
N1823       N  0.91650186  0.52653993  0.80286972    -0.61700
N1824       N  0.93326390  0.98629493  0.71372757    -0.06400
N1825       N  0.91611535  0.97574330  0.69262123    -0.58900
Mn1826     Mn  0.95724308  0.54112096  0.74696060     1.20200
Mn1827     Mn  0.95726204  0.96154216  0.74783701     1.10100
Cl1828     Cl  0.49706595  0.50133197  0.74753163    -0.86900
C1829       C  0.90564344  0.50021520  0.67908023     0.95500
C1830       C  0.90640747  0.00187875  0.81650071     0.95300
N1831       N  0.98245409  0.71789630  0.56155515    -0.07000
N1832       N  0.97232456  0.69647459  0.57851171    -0.59100
N1833       N  0.51142396  0.78586877  0.56100786    -0.06700
N1834       N  0.52159285  0.80731197  0.57799404    -0.61300
N1835       N  0.98235941  0.78583579  0.56108324    -0.06300
N1836       N  0.97214744  0.80728937  0.57800782    -0.59100
N1837       N  0.51151113  0.71792164  0.56146208    -0.06000
N1838       N  0.52175579  0.69651402  0.57836809    -0.61600
C1839       C  0.49705258  0.68321115  0.58880260     0.95100
C1840       C  0.99685097  0.82060816  0.58834158     0.94900
N1841       N  0.56044333  0.78494679  0.98244196    -0.07200
N1842       N  0.57831597  0.80557526  0.97212192    -0.59700
N1843       N  0.56026867  0.71746097  0.51197963    -0.05300
N1844       N  0.57725488  0.69608890  0.52218480    -0.61000
N1845       N  0.55999692  0.71715011  0.98294602    -0.07200
N1846       N  0.57678507  0.69554939  0.97282396    -0.60000
N1847       N  0.56046576  0.78519845  0.51147977    -0.05000
N1848       N  0.57827768  0.80600447  0.52149434    -0.61100
Mn1849     Mn  0.53656150  0.75166598  0.53712873     1.18400
C1850       C  0.58918378  0.81865011  0.99674510     0.97200
C1851       C  0.58734168  0.68248235  0.99751959     0.97900
N1852       N  0.93302573  0.78535062  0.51250528    -0.07300
N1853       N  0.91594058  0.80654468  0.52289978    -0.63600
N1854       N  0.93264687  0.71764588  0.98378503    -0.06100
N1855       N  0.91532191  0.69641269  0.97382317    -0.64200
N1856       N  0.93301158  0.71766512  0.51280634    -0.06800
N1857       N  0.91597165  0.69641153  0.52320790    -0.63800
N1858       N  0.93283636  0.78539733  0.98347644    -0.05700
N1859       N  0.91561136  0.80669203  0.97351836    -0.64500
Mn1860     Mn  0.95709913  0.75166948  0.53762742     1.10700
C1861       C  0.90527465  0.81975867  0.99837520     0.98500
C1862       C  0.90518123  0.68324035  0.99863795     0.98500
N1863       N  0.51041699  0.71687997  0.93411508    -0.06800
N1864       N  0.52041376  0.69539417  0.91710869    -0.62100
N1865       N  0.98158632  0.78481168  0.93373126    -0.06100
N1866       N  0.97124933  0.80586916  0.91648059    -0.58900
N1867       N  0.51065954  0.78482147  0.93349464    -0.07400
N1868       N  0.52068580  0.80595286  0.91608032    -0.61700
N1869       N  0.98134929  0.71697655  0.93426415    -0.06400
N1870       N  0.97098383  0.69555486  0.91734610    -0.58900
Mn1871     Mn  0.53602349  0.75097644  0.95757886     1.20200
Mn1872     Mn  0.95645217  0.75123834  0.95816496     1.10100
Cl1873     Cl  0.99654594  0.75144355  0.99761065    -0.86900
C1874       C  0.49559711  0.68216212  0.90685746     0.95500
C1875       C  0.99585548  0.81898157  0.90566514     0.95300
N1876       N  0.78141297  0.93820870  0.98320592    -0.07000
N1877       N  0.80284306  0.92121694  0.97311230    -0.59100
N1878       N  0.71331765  0.93732753  0.51146393    -0.06700
N1879       N  0.69256218  0.91931174  0.52122816    -0.61300
N1880       N  0.71376797  0.93740583  0.98243194    -0.06300
N1881       N  0.69335082  0.91943545  0.97185752    -0.59100
N1882       N  0.78096933  0.93786775  0.51223207    -0.06000
N1883       N  0.80206821  0.92059781  0.52248386    -0.61600
C1884       C  0.81564823  0.91046634  0.99783914     0.95100
C1885       C  0.68019703  0.90837007  0.99628786     0.94900
N1886       N  0.71252733  0.51569457  0.56116660    -0.07200
N1887       N  0.69099499  0.52584420  0.57800854    -0.59700
N1888       N  0.78034471  0.98667045  0.56167656    -0.05300
N1889       N  0.80167204  0.97638346  0.57865899    -0.61000
N1890       N  0.78044043  0.51573067  0.56177824    -0.07200
N1891       N  0.80184179  0.52580643  0.57884592    -0.60000
N1892       N  0.71246737  0.98663148  0.56095600    -0.05000
N1893       N  0.69093413  0.97641091  0.57774710    -0.61100
Mn1894     Mn  0.74670653  0.96150051  0.53725669     1.18400
C1895       C  0.67761277  0.50111026  0.58813533     0.97200
C1896       C  0.81501275  0.00103826  0.58915514     0.97900
N1897       N  0.71366721  0.98703119  0.93374249    -0.07300
N1898       N  0.69256949  0.97677541  0.91638793    -0.63600
N1899       N  0.78142134  0.51669967  0.93453166    -0.06100
N1900       N  0.80301834  0.52714335  0.91791483    -0.64200
N1901       N  0.78169445  0.98764389  0.93440583    -0.06800
N1902       N  0.80346145  0.97773132  0.91769719    -0.63800
N1903       N  0.71346363  0.51609081  0.93394641    -0.05700
N1904       N  0.69230365  0.52620607  0.91667490    -0.64500
Mn1905     Mn  0.74764103  0.96197576  0.95779187     1.10700
C1906       C  0.67932398  0.50145224  0.90596141     0.98500
C1907       C  0.81669764  0.00260013  0.90761107     0.98500
N1908       N  0.78063895  0.56527689  0.51287224    -0.06800
N1909       N  0.80196928  0.58245046  0.52302012    -0.62100
N1910       N  0.71261006  0.56505925  0.98362447    -0.06100
N1911       N  0.69101001  0.58188816  0.97360583    -0.58900
N1912       N  0.71269206  0.56502641  0.51265647    -0.07400
N1913       N  0.69116434  0.58178929  0.52297005    -0.61700
N1914       N  0.78046951  0.56544044  0.98384898    -0.06400
N1915       N  0.80160252  0.58268859  0.97363985    -0.58900
Mn1916     Mn  0.74663429  0.54109427  0.53780378     1.20200
Mn1917     Mn  0.74693701  0.54147361  0.95834873     1.10100
Cl1918     Cl  0.74695423  0.00150469  0.99780664    -0.86900
C1919       C  0.81491168  0.59310902  0.99825644     0.95500
C1920       C  0.67770985  0.59211704  0.99839723     0.95300
C1921       C  0.84776985  0.87472956  0.52455465    -0.22200
C1922       C  0.83974232  0.88845839  0.99797385    -0.10300
C1923       C  0.85413382  0.88007680  0.97170891     0.28600
C1924       C  0.87578761  0.85809525  0.97214433    -0.22200
C1925       C  0.88342199  0.84399083  0.99864247    -0.10300
C1926       C  0.86926640  0.85262072  0.52496514     0.28600
F1927       F  0.87543574  0.83917492  0.55100740    -0.20800
H1928       H  0.83692491  0.88062814  0.54504924     0.17000
H1929       H  0.88639054  0.85190934  0.95160603     0.17000
F1930       F  0.84720129  0.89285401  0.94552776    -0.20800
C1931       C  0.86929175  0.65110346  0.97219285    -0.22200
C1932       C  0.88324566  0.65908408  0.99869453    -0.10300
C1933       C  0.87528741  0.64446897  0.52493154     0.28600
C1934       C  0.85336970  0.62267808  0.52454024    -0.22200
C1935       C  0.83904265  0.61510036  0.99809175    -0.10300
C1936       C  0.84736778  0.62942748  0.97180013     0.28600
F1937       F  0.83385698  0.62318963  0.94576988    -0.20800
H1938       H  0.87490836  0.66209252  0.95170710     0.17000
H1939       H  0.84746510  0.61186303  0.54503923     0.17000
F1940       F  0.88852125  0.65121893  0.55097578    -0.20800
C1941       C  0.62499296  0.85089525  0.96991814    -0.22200
C1942       C  0.61186096  0.84219232  0.99663017    -0.10300
C1943       C  0.62117156  0.85566524  0.02307649     0.28600
C1944       C  0.64326572  0.87722240  0.02266212    -0.22200
C1945       C  0.65648204  0.88586831  0.99598874    -0.10300
C1946       C  0.64711083  0.87248115  0.96950419     0.28600
F1947       F  0.65948799  0.87985673  0.94322213    -0.20800
H1948       H  0.61835441  0.84077182  0.94926798     0.17000
H1949       H  0.65003140  0.88717086  0.04335674     0.17000
F1950       F  0.60897467  0.84815274  0.04940322    -0.20800
C1951       C  0.62020586  0.64740550  0.02453892    -0.22200
C1952       C  0.60894793  0.65790322  0.99763014    -0.10300
C1953       C  0.61935478  0.64539495  0.97111068     0.28600
C1954       C  0.64122444  0.62359514  0.97163722    -0.22200
C1955       C  0.65311256  0.61371427  0.99850080    -0.10300
C1956       C  0.64201112  0.62552963  0.02507318     0.28600
F1957       F  0.65253660  0.61647530  0.05161345    -0.20800
H1958       H  0.61248726  0.65648690  0.54529086     0.17000
H1959       H  0.64916827  0.61474555  0.95086946     0.17000
F1960       F  0.60881651  0.65444881  0.94458048    -0.20800
C1961       C  0.87478874  0.52886327  0.85295707    -0.22200
C1962       C  0.88508012  0.00195154  0.84135654    -0.10300
C1963       C  0.87395086  0.97534126  0.85303428     0.28600
C1964       C  0.85231958  0.97582333  0.87507404    -0.22200
C1965       C  0.84130677  0.00272295  0.88599144    -0.10000
C1966       C  0.85316881  0.52933796  0.87506300     0.28600
F1967       F  0.84358078  0.55587572  0.88525451    -0.20800
H1968       H  0.88312073  0.54966573  0.84456992     0.17000
H1969       H  0.84376887  0.95500145  0.88319072     0.17000
F1970       F  0.88341156  0.94876542  0.84281372    -0.20800
C1971       C  0.61904570  0.97581460  0.85354600    -0.22200
C1972       C  0.61140678  0.00236621  0.83945127    -0.10300
C1973       C  0.62574298  0.52864905  0.84801051     0.28600
C1974       C  0.64733706  0.52816921  0.87004330    -0.22200
C1975       C  0.65528848  0.50156194  0.88382745    -0.10300
C1976       C  0.64074701  0.97532293  0.87551195     0.28600
F1977       F  0.64742125  0.94916180  0.88851056    -0.20800
H1978       H  0.60829757  0.95528220  0.84746270     0.17000
H1979       H  0.65827269  0.54866589  0.87590097     0.17000
F1980       F  0.61954174  0.55474899  0.83466599    -0.20800
C1981       C  0.61796858  0.52671417  0.64114419    -0.22200
C1982       C  0.61006456  0.50004765  0.65488184    -0.10300
C1983       C  0.62367828  0.97366360  0.64559203     0.28600
C1984       C  0.64499956  0.97419019  0.62330478    -0.22200
C1985       C  0.65340945  0.50093680  0.61004969    -0.10300
C1986       C  0.63944583  0.52726480  0.61898042     0.28600
F1987       F  0.64664514  0.55361392  0.60661210    -0.20800
H1988       H  0.60775979  0.54730945  0.64779350     0.17000
H1989       H  0.65546133  0.95363406  0.61693674     0.17000
F1990       F  0.61713542  0.94741894  0.65851889    -0.20800
C1991       C  0.84971567  0.97389170  0.62230419    -0.22200
C1992       C  0.83953181  0.00083229  0.61077518    -0.10300
C1993       C  0.85234557  0.52734604  0.62085741     0.28600
C1994       C  0.87419041  0.52681990  0.64262686    -0.22200
C1995       C  0.88381258  0.49996273  0.65475229    -0.10300
C1996       C  0.87163710  0.97335769  0.64405316     0.28600
F1997       F  0.88040754  0.94682484  0.65488630    -0.20800
H1998       H  0.84035988  0.95313841  0.61483847     0.17000
H1999       H  0.88332579  0.54760912  0.65026744     0.17000
F2000       F  0.84361959  0.55388128  0.61001936    -0.20800
C2001       C  0.96974870  0.62449735  0.85155976    -0.22200
C2002       C  0.99675396  0.61455349  0.83987683    -0.10300
C2003       C  0.52327942  0.62599001  0.85145675     0.28600
C2004       C  0.52261852  0.64744507  0.87365871    -0.22200
C2005       C  0.49562292  0.65794238  0.88483612    -0.10300
C2006       C  0.96909143  0.64590427  0.87385694     0.28600
F2007       F  0.94246968  0.65497617  0.88429994    -0.20800
H2008       H  0.94900461  0.61593303  0.84321108     0.17000
H2009       H  0.54337889  0.65618951  0.88178093     0.17000
F2010       F  0.54992390  0.61689531  0.84109872    -0.20800
C2011       C  0.52251900  0.85647052  0.87527737    -0.22200
C2012       C  0.99573758  0.84329322  0.88383757    -0.10300
C2013       C  0.96926430  0.85307271  0.87076151     0.28600
C2014       C  0.96981643  0.87526838  0.84935181    -0.22200
C2015       C  0.99665857  0.88805918  0.84039872    -0.10300
C2016       C  0.52307522  0.87861121  0.85380136     0.28600
F2017       F  0.54952387  0.89050302  0.84608229    -0.20800
H2018       H  0.54319689  0.84945988  0.88504688     0.17000
H2019       H  0.94916389  0.88205347  0.83937216     0.17000
F2020       F  0.94285671  0.84081683  0.87804843    -0.20800
C2021       C  0.97122396  0.88123046  0.64039714    -0.22200
C2022       C  0.49761141  0.88819868  0.65519956    -0.10300
C2023       C  0.52377858  0.87344383  0.64712156     0.28600
C2024       C  0.52338827  0.85214659  0.62479900    -0.22200
C2025       C  0.99693765  0.84474086  0.61038488    -0.10300
C2026       C  0.97077159  0.85963924  0.61826812     0.28600
F2027       F  0.94469833  0.85326557  0.60485445    -0.20800
H2028       H  0.95078457  0.89227551  0.64618132     0.17000
H2029       H  0.54377965  0.84083999  0.61936893     0.17000
F2030       F  0.54960741  0.87871423  0.66143240    -0.20800
C2031       C  0.97098233  0.62451995  0.64263923    -0.22200
C2032       C  0.49786018  0.61406959  0.65405192    -0.10300
C2033       C  0.52451756  0.62559128  0.64278381     0.28600
C2034       C  0.52405579  0.64765546  0.62119540    -0.22200
C2035       C  0.49713339  0.65862240  0.61034245    -0.10300
C2036       C  0.97052526  0.64649294  0.62100375     0.28600
F2037       F  0.94396942  0.65604858  0.61090055    -0.20800
H2038       H  0.95014559  0.61594984  0.65074915     0.17000
H2039       H  0.54486965  0.65645619  0.61327564     0.17000
F2040       F  0.55107140  0.61598095  0.65285714    -0.20800
loop_ 
_geom_bond_atom_site_label_1 
_geom_bond_atom_site_label_2 
_geom_bond_distance 
_geom_bond_site_symmetry_2 
_ccdc_geom_bond_type 
N1            N2   1.319       .  A
N1          N517   1.315       .  A
N1          Mn30   2.196       .  S
N2          C519   1.353       .  A
N3            N4   1.320       .  A
N3          N515   1.315   1_545  A
N3          Mn19   2.202       .  S
N4          C520   1.354       .  A
N5            N6   1.320       .  A
N5          N513   1.315       .  A
N5          Mn30   2.199       .  S
N6           C10   1.354       .  A
N7            N8   1.319       .  A
N7          N511   1.315   1_545  A
N7          Mn19   2.198       .  S
N8            C9   1.353       .  A
C9          N512   1.353   1_545  A
C9          C197   1.478       .  S
C10         N514   1.354       .  A
C10         C187   1.480       .  S
N11          N12   1.320       .  A
N11        N1037   1.315       .  A
N11         Mn41   2.199       .  S
N12          C20   1.354       .  A
N13          N14   1.320       .  A
N13        N1035   1.315   1_455  A
N13         Mn19   2.200       .  S
N14          C21   1.353   1_455  A
N15          N16   1.321       .  A
N15        N1033   1.315       .  A
N15         Mn41   2.206       .  S
N16        C1041   1.355       .  A
N17          N18   1.320       .  A
N17        N1031   1.315   1_455  A
N17         Mn19   2.200       .  S
N18        C1040   1.354   1_455  A
Mn19        Cl43   2.544   1_455  S
C20        N1038   1.354       .  A
C20         C217   1.480       .  S
C21        N1036   1.355       .  A
C21         C247   1.482       .  S
N22          N23   1.320       .  A
N22        N1048   1.315   1_455  A
N22         Mn30   2.197       .  S
N23        C1051   1.353   1_455  A
N24          N25   1.320       .  A
N24        N1046   1.315       .  A
N24         Mn42   2.200       .  S
N25        C1052   1.354       .  A
N26          N27   1.319       .  A
N26        N1044   1.315   1_455  A
N26         Mn30   2.198       .  S
N27          C32   1.353   1_455  A
N28          N29   1.320       .  A
N28        N1042   1.315       .  A
N28         Mn42   2.201       .  S
N29          C31   1.354       .  A
Mn30       Cl553   2.547   1_455  S
C31        N1043   1.353       .  A
C31         C230   1.480       .  S
C32        N1045   1.354       .  A
C32         C237   1.478       .  S
N33          N34   1.320       .  A
N33         N549   1.315   1_545  A
N33         Mn41   2.202       .  S
N34          C44   1.354       .  A
N35          N36   1.319       .  A
N35         N547   1.315       .  A
N35         Mn42   2.200       .  S
N36          C45   1.353       .  A
N37          N38   1.321       .  A
N37         N545   1.315   1_545  A
N37         Mn41   2.206       .  S
N38         C555   1.355       .  A
N39          N40   1.320       .  A
N39         N543   1.315       .  A
N39         Mn42   2.198       .  S
N40         C554   1.353       .  A
Mn41      Cl1063   2.548       .  S
Mn42      Cl1573   2.545       .  S
Cl43       Mn540   2.547   1_645  S
Cl43      Mn1061   2.548       .  S
Cl43      Mn1572   2.545   1_545  S
C44         N550   1.353   1_545  A
C44         C210   1.480   1_545  S
C45         N548   1.355       .  A
C45         C177   1.482       .  S
N46          N47   1.319       .  A
N46        N1072   1.314       .  A
N46         Mn75   2.199       .  S
N47        C1074   1.353       .  A
N48          N49   1.320       .  A
N48        N1070   1.315   1_455  A
N48         Mn64   2.203       .  S
N49        C1075   1.354   1_455  A
N50          N51   1.320       .  A
N50        N1068   1.315       .  A
N50         Mn75   2.195       .  S
N51          C55   1.352       .  A
N52          N53   1.320       .  A
N52        N1066   1.314   1_455  A
N52         Mn64   2.198       .  S
N53          C54   1.354   1_455  A
C54        N1067   1.353       .  A
C54         C250   1.481       .  S
C55        N1069   1.354       .  A
C55         C240   1.478       .  S
N56          N57   1.320       .  A
N56         N317   1.315       .  A
N56         Mn86   2.201       .  S
N57          C65   1.354       .  A
N58          N59   1.320       .  A
N58         N315   1.315   1_554  A
N58         Mn64   2.200       .  S
N59         C321   1.354   1_554  A
N60          N61   1.320       .  A
N60         N313   1.315       .  A
N60         Mn86   2.202       .  S
N61          C66   1.354       .  A
N62          N63   1.318       .  A
N62         N311   1.315   1_554  A
N62         Mn64   2.196       .  S
N63         C320   1.352   1_554  A
Mn64      Cl1363   2.546   1_454  S
C65         N318   1.352       .  A
C65         C157   1.478       .  S
C66         N314   1.354       .  A
C66         C167   1.481       .  S
N67          N68   1.318       .  A
N67         N328   1.315   1_554  A
N67         Mn75   2.194       .  S
N68         C331   1.352   1_554  A
N69          N70   1.318       .  A
N69         N326   1.315       .  A
N69         Mn87   2.195       .  S
N70          C77   1.353       .  A
N71          N72   1.319       .  A
N71         N324   1.315   1_554  A
N71         Mn75   2.193       .  S
N72         C332   1.353   1_554  A
N73          N74   1.320       .  A
N73         N322   1.315       .  A
N73         Mn87   2.200       .  S
N74          C76   1.354       .  A
Mn75       Cl343   2.543   1_554  S
C76         N323   1.352       .  A
C76         C140   1.477       .  S
C77         N327   1.353       .  A
C77         C147   1.475       .  S
N78          N79   1.319       .  A
N78        N1104   1.315   1_455  A
N78         Mn86   2.201       .  S
N79          C89   1.354   1_455  A
N80          N81   1.319       .  A
N80        N1102   1.315       .  A
N80         Mn87   2.197       .  S
N81          C90   1.353       .  A
N82          N83   1.320       .  A
N82        N1100   1.315   1_455  A
N82         Mn86   2.205       .  S
N83        C1110   1.355   1_455  A
N84          N85   1.320       .  A
N84        N1098   1.315       .  A
N84         Mn87   2.200       .  S
N85        C1109   1.354       .  A
Mn86      Cl1108   2.544   1_455  S
Mn87        Cl88   2.547       .  S
Cl88      Mn1339   2.546       .  S
Cl88       Mn330   2.543       .  S
Cl88      Mn1106   2.544       .  S
C89        N1105   1.354       .  A
C89         C220   1.481       .  S
C90        N1103   1.355       .  A
C90         C227   1.480       .  S
N91          N92   1.319       .  A
N91         N352   1.315       .  A
N91        Mn120   2.197       .  S
N92          C99   1.353       .  A
N93          N94   1.319       .  A
N93         N350   1.315   1_554  A
N93        Mn109   2.199       .  S
N94         C355   1.354   1_554  A
N95          N96   1.319       .  A
N95         N348   1.315       .  A
N95        Mn120   2.197       .  S
N96         C100   1.353       .  A
N97          N98   1.319       .  A
N97         N346   1.315   1_554  A
N97        Mn109   2.197       .  S
N98         C354   1.353   1_554  A
C99         N353   1.353       .  A
C99         C137   1.477       .  S
C100        N349   1.354       .  A
C100        C160   1.478       .  S
N101        N102   1.319       .  A
N101        N617   1.315   1_545  A
N101       Mn131   2.195       .  S
N102        C110   1.353       .  A
N103        N104   1.320       .  A
N103        N615   1.315       .  A
N103       Mn109   2.198       .  S
N104        C111   1.353       .  A
N105        N106   1.320       .  A
N105        N613   1.315   1_545  A
N105       Mn131   2.201       .  S
N106        C621   1.354       .  A
N107        N108   1.319       .  A
N107        N611   1.315       .  A
N107       Mn109   2.200       .  S
N108        C620   1.354       .  A
Mn109      Cl388   2.546   1_554  S
C110        N618   1.354   1_545  A
C110        C200   1.477       .  S
C111        N616   1.354       .  A
C111        C207   1.480       .  S
N112        N113   1.320       .  A
N112        N628   1.315       .  A
N112       Mn120   2.201       .  S
N113        C631   1.354       .  A
N114        N115   1.321       .  A
N114        N626   1.315   1_545  A
N114       Mn132   2.203       .  S
N115        C632   1.354       .  A
N116        N117   1.320       .  A
N116        N624   1.315       .  A
N116       Mn120   2.201       .  S
N117        C122   1.354       .  A
N118        N119   1.319       .  A
N118        N622   1.315   1_545  A
N118       Mn132   2.197       .  S
N119        C121   1.353       .  A
Mn120      Cl133   2.544       .  S
C121        N623   1.354   1_545  A
C121        C190   1.479       .  S
C122        N625   1.354       .  A
C122        C180   1.482       .  S
N123        N124   1.320       .  A
N123        N384   1.315   1_554  A
N123       Mn131   2.199       .  S
N124        C389   1.354   1_554  A
N125        N126   1.321       .  A
N125        N382   1.315       .  A
N125       Mn132   2.204       .  S
N126        C135   1.355       .  A
N127        N128   1.320       .  A
N127        N380   1.315   1_554  A
N127       Mn131   2.199       .  S
N128        C390   1.353   1_554  A
N129        N130   1.318       .  A
N129        N378   1.315       .  A
N129       Mn132   2.192       .  S
N130        C134   1.351       .  A
Mn131      Cl898   2.546   1_554  S
Mn132      Cl643   2.545       .  S
Cl133      Mn364   2.546       .  S
Cl133      Mn896   2.546       .  S
Cl133      Mn642   2.545       .  S
C134        N379   1.354       .  A
C134        C150   1.476       .  S
C135        N383   1.353       .  A
C135        C170   1.482       .  S
C136        C141   1.396       .  A
C136        C392   1.404   1_554  A
C136        H143   1.083       .  S
C137        C138   1.408       .  A
C137        C391   1.404       .  A
C138        C139   1.397       .  A
C138        F145   1.357       .  S
C139        C140   1.404       .  A
C139        H144   1.083       .  S
C140        C396   1.408       .  A
C141        C395   1.408   1_554  A
C141        F142   1.357       .  S
C146        C147   1.403       .  A
C146        C151   1.394       .  A
C146        H153   1.083       .  S
C147        C403   1.407       .  A
C148        C149   1.398       .  A
C148        C402   1.407   1_554  A
C148        F155   1.357       .  S
C149        C405   1.404   1_554  A
C149        H154   1.083       .  S
C150        C151   1.408       .  A
C150        C404   1.404       .  A
C151        F152   1.357       .  S
C156        C157   1.404       .  A
C156        C161   1.398       .  A
C156        H163   1.083       .  S
C157        C158   1.408       .  A
C158        C159   1.396       .  A
C158        F165   1.357       .  S
C159        C160   1.404       .  A
C159        H164   1.083       .  S
C160        C161   1.408       .  A
C161        F162   1.357       .  S
C166        C167   1.405       .  A
C166        C171   1.398       .  A
C166        H428   1.083       .  S
C167        C168   1.408       .  A
C168        C169   1.398       .  A
C168        F175   1.357       .  S
C169        C170   1.405       .  A
C169        H174   1.083       .  S
C170        C171   1.409       .  A
C171        F172   1.357       .  S
H173        C421   1.083       .  S
C176        C181   1.399       .  A
C176        C687   1.405       .  A
C176        H183   1.083       .  S
C177        C178   1.408       .  A
C177        C686   1.405       .  A
C178        C179   1.398       .  A
C178        F185   1.357       .  S
C179        C180   1.405       .  A
C179        H184   1.083       .  S
C180        C691   1.408       .  A
C181        C690   1.408       .  A
C181        F182   1.357       .  S
C186        C187   1.405       .  A
C186        C191   1.398       .  A
C186        H193   1.083       .  S
C187        C698   1.408       .  A
C188        C189   1.397       .  A
C188        C697   1.408       .  A
C188        F195   1.357       .  S
C189        C190   1.404       .  A
C189        H194   1.083       .  S
C190        C701   1.407   1_545  A
C191        C700   1.407       .  A
C191        F192   1.357       .  S
C196        C197   1.404       .  A
C196        C201   1.397       .  A
C196        H203   1.083       .  S
C197        C708   1.407   1_545  A
C198        C199   1.396       .  A
C198        C707   1.407       .  A
C198        F205   1.357       .  S
C199        C710   1.404       .  A
C199        H204   1.083       .  S
C200        C201   1.408       .  A
C200        C709   1.404   1_545  A
C201        F202   1.357       .  S
C206        C207   1.405       .  A
C206        C211   1.398       .  A
C206        H213   1.083       .  S
C207        C718   1.407       .  A
C208        C209   1.397       .  A
C208        C717   1.407       .  A
C208        F215   1.357       .  S
C209        C210   1.404   1_545  A
C209        H214   1.083       .  S
C210        C721   1.409       .  A
C211        C720   1.409       .  A
C211        F212   1.357       .  S
C216        C217   1.405       .  A
C216        C221   1.398       .  A
C216        H223   1.083       .  S
C217       C1238   1.407       .  A
C218        C219   1.397       .  A
C218       C1237   1.407   1_455  A
C218        F225   1.357       .  S
C219        C220   1.405   1_455  A
C219        H224   1.083       .  S
C220       C1241   1.408       .  A
C221       C1240   1.408       .  A
C221        F222   1.357       .  S
C226        C231   1.398       .  A
C226       C1247   1.404   1_455  A
C226        H233   1.083       .  S
C227        C228   1.408       .  A
C227       C1246   1.404       .  A
C228        C229   1.397       .  A
C228        F235   1.357       .  S
C229        C230   1.404       .  A
C229        H234   1.083       .  S
C230       C1251   1.408       .  A
C231       C1250   1.408   1_455  A
C231        F232   1.357       .  S
C236        C241   1.399       .  A
C236       C1257   1.405       .  A
C236        H243   1.083       .  S
C237        C238   1.408   1_655  A
C237       C1256   1.405       .  A
C238        C239   1.396       .  A
C238        F245   1.357       .  S
C239       C1260   1.403   1_455  A
C239        H244   1.083       .  S
C240        C241   1.408       .  A
C240       C1259   1.403       .  A
C241        F242   1.358       .  S
C246        C251   1.397       .  A
C246       C1267   1.404       .  A
C246        H253   1.083       .  S
C247        C248   1.409   1_655  A
C247       C1266   1.404       .  A
C248        C249   1.399       .  A
C248        F255   1.357       .  S
C249        C250   1.405   1_455  A
C249        H254   1.083       .  S
C250       C1271   1.408       .  A
C251       C1270   1.408       .  A
C251        F252   1.357       .  S
N256        N257   1.319       .  A
N256        N772   1.315       .  A
N256       Mn285   2.196       .  S
N257        C774   1.353       .  A
N258        N770   1.315   1_545  A
N258        N259   1.320       .  A
N258       Mn274   2.202       .  S
N259        C775   1.354       .  A
N260        N768   1.315       .  A
N260        N261   1.320       .  A
N260       Mn285   2.199       .  S
N261        C265   1.354       .  A
N262        N766   1.315   1_545  A
N262        N263   1.319       .  A
N262       Mn274   2.198       .  S
N263        C264   1.353       .  A
C264        N767   1.353   1_545  A
C264        C452   1.478       .  S
C265        N769   1.354       .  A
C265        C442   1.480       .  S
N266       N1292   1.315       .  A
N266        N267   1.320       .  A
N266       Mn296   2.199       .  S
N267        C275   1.354       .  A
N268        N269   1.320       .  A
N268       N1290   1.315   1_455  A
N268       Mn274   2.200       .  S
N269        C276   1.353   1_455  A
N270       N1288   1.315       .  A
N270        N271   1.321       .  A
N270       Mn296   2.206       .  S
N271       C1296   1.355       .  A
N272       N1286   1.315   1_455  A
N272        N273   1.320       .  A
N272       Mn274   2.200       .  S
N273       C1295   1.354   1_455  A
Mn274      Cl298   2.544   1_455  S
C275       N1293   1.354       .  A
C275        C472   1.480       .  S
C276       N1291   1.355       .  A
C276        C502   1.482       .  S
N277        N278   1.320       .  A
N277       N1303   1.315   1_455  A
N277       Mn285   2.197       .  S
N278       C1306   1.353   1_455  A
N279       N1301   1.315       .  A
N279        N280   1.320       .  A
N279       Mn297   2.200       .  S
N280       C1307   1.354       .  A
N281       N1299   1.315   1_455  A
N281        N282   1.319       .  A
N281       Mn285   2.198       .  S
N282        C287   1.353   1_455  A
N283       N1297   1.315       .  A
N283        N284   1.320       .  A
N283       Mn297   2.201       .  S
N284        C286   1.354       .  A
Mn285      Cl808   2.547   1_455  S
C286       N1298   1.353       .  A
C286        C485   1.480       .  S
C287       N1300   1.354       .  A
C287        C492   1.478       .  S
N288        N289   1.320       .  A
N288        N804   1.315   1_545  A
N288       Mn296   2.202       .  S
N289        C299   1.354       .  A
N290        N291   1.319       .  A
N290        N802   1.315       .  A
N290       Mn297   2.200       .  S
N291        C300   1.353       .  A
N292        N800   1.315   1_545  A
N292        N293   1.321       .  A
N292       Mn296   2.206       .  S
N293        C810   1.355       .  A
N294        N798   1.315       .  A
N294        N295   1.320       .  A
N294       Mn297   2.198       .  S
N295        C809   1.353       .  A
Mn296     Cl1318   2.548       .  S
Mn297     Cl1828   2.545       .  S
Cl298      Mn795   2.547   1_645  S
Cl298     Mn1316   2.548       .  S
Cl298     Mn1827   2.545   1_545  S
C299        N805   1.353   1_545  A
C299        C465   1.480   1_545  S
C300        N803   1.355       .  A
C300        C432   1.482       .  S
N301        N302   1.319       .  A
N301       N1327   1.314       .  A
N301       Mn330   2.199       .  S
N302       C1329   1.353       .  A
N303       N1325   1.315   1_455  A
N303        N304   1.320       .  A
N303       Mn319   2.203       .  S
N304       C1330   1.354   1_455  A
N305       N1323   1.315       .  A
N305        N306   1.320       .  A
N305       Mn330   2.195       .  S
N306        C310   1.352       .  A
N307       N1321   1.314   1_455  A
N307        N308   1.320       .  A
N307       Mn319   2.198       .  S
N308        C309   1.354   1_455  A
C309       N1322   1.353       .  A
C309        C505   1.481       .  S
C310       N1324   1.354       .  A
C310        C495   1.478       .  S
N311        N312   1.320       .  A
N311       Mn341   2.201       .  S
N312        C320   1.354       .  A
N313        N314   1.320       .  A
N313       Mn319   2.200       .  S
N315        N316   1.320       .  A
N315       Mn341   2.202       .  S
N316        C321   1.354       .  A
N317        N318   1.318       .  A
N317       Mn319   2.196       .  S
Mn319     Cl1108   2.546   1_455  S
C320        C412   1.478       .  S
C321        C422   1.481       .  S
N322        N323   1.318       .  A
N322       Mn330   2.194       .  S
N324        N325   1.318       .  A
N324       Mn342   2.195       .  S
N325        C332   1.353       .  A
N326        N327   1.319       .  A
N326       Mn330   2.193       .  S
N328        N329   1.320       .  A
N328       Mn342   2.200       .  S
N329        C331   1.354       .  A
C331        C395   1.477       .  S
C332        C402   1.475       .  S
N333        N334   1.319       .  A
N333       N1359   1.315   1_455  A
N333       Mn341   2.201       .  S
N334        C344   1.354   1_455  A
N335        N336   1.319       .  A
N335       N1357   1.315       .  A
N335       Mn342   2.197       .  S
N336        C345   1.353       .  A
N337       N1355   1.315   1_455  A
N337        N338   1.320       .  A
N337       Mn341   2.205       .  S
N338       C1365   1.355   1_455  A
N339       N1353   1.315       .  A
N339        N340   1.320       .  A
N339       Mn342   2.200       .  S
N340       C1364   1.354       .  A
Mn341     Cl1363   2.544   1_455  S
Mn342      Cl343   2.547       .  S
Cl343     Mn1084   2.546   1_556  S
Cl343     Mn1361   2.544       .  S
C344       N1360   1.354       .  A
C344        C475   1.481       .  S
C345       N1358   1.355       .  A
C345        C482   1.480       .  S
N346        N347   1.319       .  A
N346       Mn375   2.197       .  S
N347        C354   1.353       .  A
N348        N349   1.319       .  A
N348       Mn364   2.199       .  S
N350        N351   1.319       .  A
N350       Mn375   2.197       .  S
N351        C355   1.353       .  A
N352        N353   1.319       .  A
N352       Mn364   2.197       .  S
C354        C392   1.477       .  S
C355        C415   1.478       .  S
N356        N872   1.315   1_545  A
N356        N357   1.319       .  A
N356       Mn386   2.195       .  S
N357        C365   1.353       .  A
N358        N359   1.320       .  A
N358        N870   1.315       .  A
N358       Mn364   2.198       .  S
N359        C366   1.353       .  A
N360        N868   1.315   1_545  A
N360        N361   1.320       .  A
N360       Mn386   2.201       .  S
N361        C876   1.354       .  A
N362        N866   1.315       .  A
N362        N363   1.319       .  A
N362       Mn364   2.200       .  S
N363        C875   1.354       .  A
C365        N873   1.354   1_545  A
C365        C455   1.477       .  S
C366        N871   1.354       .  A
C366        C462   1.480       .  S
N367        N368   1.320       .  A
N367        N883   1.315       .  A
N367       Mn375   2.201       .  S
N368        C886   1.354       .  A
N369        N881   1.315   1_545  A
N369        N370   1.320       .  A
N369       Mn387   2.203       .  S
N370        C887   1.354       .  A
N371        N879   1.315       .  A
N371        N372   1.320       .  A
N371       Mn375   2.201       .  S
N372        C377   1.354       .  A
N373        N877   1.315   1_545  A
N373        N374   1.319       .  A
N373       Mn387   2.197       .  S
N374        C376   1.353       .  A
Mn375      Cl388   2.544       .  S
C376        N878   1.354   1_545  A
C376        C445   1.479       .  S
C377        N880   1.354       .  A
C377        C435   1.482       .  S
N378        N379   1.320       .  A
N378       Mn386   2.199       .  S
N380        N381   1.321       .  A
N380       Mn387   2.204       .  S
N381        C390   1.355       .  A
N382        N383   1.320       .  A
N382       Mn386   2.199       .  S
N384        N385   1.318       .  A
N384       Mn387   2.192       .  S
N385        C389   1.351       .  A
Mn386      Cl643   2.546       .  S
Mn387      Cl898   2.545       .  S
Cl388      Mn641   2.546   1_556  S
Cl388      Mn897   2.545       .  S
C389        C405   1.476       .  S
C390        C425   1.482       .  S
C391        C396   1.396       .  A
C391        H398   1.083       .  S
C392        C393   1.408       .  A
C393        C394   1.397       .  A
C393        F400   1.357       .  S
C394        C395   1.404       .  A
C394        H399   1.083       .  S
C396        F397   1.357       .  S
C401        C402   1.403       .  A
C401        C406   1.394       .  A
C401        H408   1.083       .  S
C403        C404   1.398       .  A
C403        F410   1.357       .  S
C404        H409   1.083       .  S
C405        C406   1.408       .  A
C406        F407   1.357       .  S
C411        C412   1.404       .  A
C411        C416   1.398       .  A
C411        H418   1.083       .  S
C412        C413   1.408   1_556  A
C413        C414   1.396       .  A
C413        F420   1.357       .  S
C414        C415   1.404   1_554  A
C414        H419   1.083       .  S
C415        C416   1.408       .  A
C416        F417   1.357       .  S
C421        C422   1.405   1_554  A
C421        C426   1.398       .  A
C422        C423   1.408       .  A
C423        C424   1.398       .  A
C423        F430   1.357       .  S
C424        C425   1.405       .  A
C424        H429   1.083       .  S
C425        C426   1.409   1_556  A
C426        F427   1.357       .  S
C431        C942   1.405       .  A
C431        C436   1.399       .  A
C431        H438   1.083       .  S
C432        C941   1.405       .  A
C432        C433   1.408       .  A
C433        C434   1.398       .  A
C433        F440   1.357       .  S
C434        C435   1.405       .  A
C434        H439   1.083       .  S
C435        C946   1.408       .  A
C436        C945   1.408       .  A
C436        F437   1.357       .  S
C441        C442   1.405       .  A
C441        C446   1.398       .  A
C441        H448   1.083       .  S
C442        C953   1.408       .  A
C443        C952   1.408       .  A
C443        C444   1.397       .  A
C443        F450   1.357       .  S
C444        C445   1.404       .  A
C444        H449   1.083       .  S
C445        C956   1.407   1_545  A
C446        C955   1.407       .  A
C446        F447   1.357       .  S
C451        C452   1.404       .  A
C451        C456   1.397       .  A
C451        H458   1.083       .  S
C452        C963   1.407   1_545  A
C453        C962   1.407       .  A
C453        C454   1.396       .  A
C453        F460   1.357       .  S
C454        C965   1.404       .  A
C454        H459   1.083       .  S
C455        C964   1.404   1_545  A
C455        C456   1.408       .  A
C456        F457   1.357       .  S
C461        C462   1.405       .  A
C461        C466   1.398       .  A
C461        H468   1.083       .  S
C462        C973   1.407       .  A
C463        C972   1.407       .  A
C463        C464   1.397       .  A
C463        F470   1.357       .  S
C464        C465   1.404   1_545  A
C464        H469   1.083       .  S
C465        C976   1.409       .  A
C466        C975   1.409       .  A
C466        F467   1.357       .  S
C471        C472   1.405       .  A
C471        C476   1.398       .  A
C471        H478   1.083       .  S
C472       C1493   1.407       .  A
C473       C1492   1.407   1_455  A
C473        C474   1.397       .  A
C473        F480   1.357       .  S
C474        C475   1.405   1_455  A
C474        H479   1.083       .  S
C475       C1496   1.408       .  A
C476       C1495   1.408       .  A
C476        F477   1.357       .  S
C481       C1502   1.404   1_455  A
C481        C486   1.398       .  A
C481        H488   1.083       .  S
C482       C1501   1.404       .  A
C482        C483   1.408       .  A
C483        C484   1.397       .  A
C483        F490   1.357       .  S
C484        C485   1.404       .  A
C484        H489   1.083       .  S
C485       C1506   1.408       .  A
C486       C1505   1.408   1_455  A
C486        F487   1.357       .  S
C491       C1512   1.405       .  A
C491        C496   1.399       .  A
C491        H498   1.083       .  S
C492       C1511   1.405       .  A
C492        C493   1.408   1_655  A
C493        C494   1.396       .  A
C493        F500   1.357       .  S
C494       C1515   1.403   1_455  A
C494        H499   1.083       .  S
C495       C1514   1.403       .  A
C495        C496   1.408       .  A
C496        F497   1.358       .  S
C501       C1522   1.404       .  A
C501        C506   1.397       .  A
C501        H508   1.083       .  S
C502       C1521   1.404       .  A
C502        C503   1.409   1_655  A
C503        C504   1.399       .  A
C503        F510   1.357       .  S
C504        C505   1.405   1_455  A
C504        H509   1.083       .  S
C505       C1526   1.408       .  A
C506       C1525   1.408       .  A
C506        F507   1.357       .  S
N511        N512   1.319       .  A
N511       Mn540   2.196       .  S
N513        N514   1.320       .  A
N513       Mn529   2.202       .  S
N515        N516   1.320       .  A
N515       Mn540   2.199       .  S
N516        C520   1.354   1_565  A
N517        N518   1.319       .  A
N517       Mn529   2.198       .  S
N518        C519   1.353       .  A
C519        C707   1.478       .  S
C520        C697   1.480       .  S
N521       N1547   1.315       .  A
N521        N522   1.320       .  A
N521       Mn551   2.199       .  S
N522        C530   1.354       .  A
N523        N524   1.320       .  A
N523       N1545   1.315   1_455  A
N523       Mn529   2.200       .  S
N524        C531   1.353   1_455  A
N525       N1543   1.315       .  A
N525        N526   1.321       .  A
N525       Mn551   2.206       .  S
N526       C1551   1.355       .  A
N527       N1541   1.315   1_455  A
N527        N528   1.320       .  A
N527       Mn529   2.200       .  S
N528       C1550   1.354   1_455  A
Mn529      Cl553   2.544   1_455  S
C530       N1548   1.354       .  A
C530        C727   1.480       .  S
C531       N1546   1.355       .  A
C531        C757   1.482       .  S
N532        N533   1.320       .  A
N532       N1558   1.315   1_455  A
N532       Mn540   2.197       .  S
N533       C1561   1.353   1_455  A
N534       N1556   1.315       .  A
N534        N535   1.320       .  A
N534       Mn552   2.200       .  S
N535       C1562   1.354       .  A
N536       N1554   1.315   1_455  A
N536        N537   1.319       .  A
N536       Mn540   2.198       .  S
N537        C542   1.353   1_455  A
N538       N1552   1.315       .  A
N538        N539   1.320       .  A
N538       Mn552   2.201       .  S
N539        C541   1.354       .  A
C541       N1553   1.353       .  A
C541        C740   1.480       .  S
C542       N1555   1.354       .  A
C542        C747   1.478       .  S
N543        N544   1.320       .  A
N543       Mn551   2.202       .  S
N544        C554   1.354       .  A
N545        N546   1.319       .  A
N545       Mn552   2.200       .  S
N546        C555   1.353   1_565  A
N547        N548   1.321       .  A
N547       Mn551   2.206       .  S
N549        N550   1.320       .  A
N549       Mn552   2.198       .  S
Mn551     Cl1573   2.548       .  S
Mn552     Cl1063   2.545   1_565  S
Cl553     Mn1571   2.548       .  S
Cl553     Mn1062   2.545       .  S
C554        C720   1.480       .  S
C555        C687   1.482       .  S
N556        N557   1.319       .  A
N556       N1582   1.314       .  A
N556       Mn585   2.199       .  S
N557       C1584   1.353       .  A
N558       N1580   1.315   1_455  A
N558        N559   1.320       .  A
N558       Mn574   2.203       .  S
N559       C1585   1.354   1_455  A
N560       N1578   1.315       .  A
N560        N561   1.320       .  A
N560       Mn585   2.195       .  S
N561        C565   1.352       .  A
N562       N1576   1.314   1_455  A
N562        N563   1.320       .  A
N562       Mn574   2.198       .  S
N563        C564   1.354   1_455  A
C564       N1577   1.353       .  A
C564        C760   1.481       .  S
C565       N1579   1.354       .  A
C565        C750   1.478       .  S
N566        N827   1.315       .  A
N566        N567   1.320       .  A
N566       Mn596   2.201       .  S
N567        C575   1.354       .  A
N568        N569   1.320       .  A
N568        N825   1.315   1_554  A
N568       Mn574   2.200       .  S
N569        C831   1.354   1_554  A
N570        N823   1.315       .  A
N570        N571   1.320       .  A
N570       Mn596   2.202       .  S
N571        C576   1.354       .  A
N572        N821   1.315   1_554  A
N572        N573   1.318       .  A
N572       Mn574   2.196       .  S
N573        C830   1.352   1_554  A
Mn574     Cl1873   2.546   1_454  S
C575        N828   1.352       .  A
C575        C667   1.478       .  S
C576        N824   1.354       .  A
C576        C677   1.481       .  S
N577        N578   1.318       .  A
N577        N838   1.315   1_554  A
N577       Mn585   2.194       .  S
N578        C841   1.352   1_554  A
N579        N836   1.315       .  A
N579        N580   1.318       .  A
N579       Mn597   2.195       .  S
N580        C587   1.353       .  A
N581        N834   1.315   1_554  A
N581        N582   1.319       .  A
N581       Mn585   2.193       .  S
N582        C842   1.353   1_554  A
N583        N832   1.315       .  A
N583        N584   1.320       .  A
N583       Mn597   2.200       .  S
N584        C586   1.354       .  A
Mn585      Cl853   2.543   1_554  S
C586        N833   1.352       .  A
C586        C650   1.477       .  S
C587        N837   1.353       .  A
C587        C657   1.475       .  S
N588        N589   1.319       .  A
N588       N1614   1.315   1_455  A
N588       Mn596   2.201       .  S
N589        C599   1.354   1_455  A
N590        N591   1.319       .  A
N590       N1612   1.315       .  A
N590       Mn597   2.197       .  S
N591        C600   1.353       .  A
N592       N1610   1.315   1_455  A
N592        N593   1.320       .  A
N592       Mn596   2.205       .  S
N593       C1620   1.355   1_455  A
N594       N1608   1.315       .  A
N594        N595   1.320       .  A
N594       Mn597   2.200       .  S
N595       C1619   1.354       .  A
Mn596     Cl1618   2.544   1_455  S
Mn597      Cl598   2.547       .  S
Cl598     Mn1849   2.546       .  S
Cl598      Mn840   2.543       .  S
Cl598     Mn1616   2.544       .  S
C599       N1615   1.354       .  A
C599        C730   1.481       .  S
C600       N1613   1.355       .  A
C600        C737   1.480       .  S
N601        N602   1.319       .  A
N601        N862   1.315       .  A
N601       Mn630   2.197       .  S
N602        C609   1.353       .  A
N603        N860   1.315   1_554  A
N603        N604   1.319       .  A
N603       Mn619   2.199       .  S
N604        C865   1.354   1_554  A
N605        N858   1.315       .  A
N605        N606   1.319       .  A
N605       Mn630   2.197       .  S
N606        C610   1.353       .  A
N607        N856   1.315   1_554  A
N607        N608   1.319       .  A
N607       Mn619   2.197       .  S
N608        C864   1.353   1_554  A
C609        N863   1.353       .  A
C609        C647   1.477       .  S
C610        N859   1.354       .  A
C610        C670   1.478       .  S
N611        N612   1.319       .  A
N611       Mn641   2.195       .  S
N612        C620   1.353       .  A
N613        N614   1.320       .  A
N613       Mn619   2.198       .  S
N614        C621   1.353   1_565  A
N615        N616   1.320       .  A
N615       Mn641   2.201       .  S
N617        N618   1.319       .  A
N617       Mn619   2.200       .  S
Mn619      Cl898   2.546   1_564  S
C620        C710   1.477       .  S
C621        C717   1.480       .  S
N622        N623   1.320       .  A
N622       Mn630   2.201       .  S
N624        N625   1.320       .  A
N624       Mn642   2.203       .  S
N626        N627   1.320       .  A
N626       Mn630   2.201       .  S
N627        C632   1.354   1_565  A
N628        N629   1.319       .  A
N628       Mn642   2.197       .  S
N629        C631   1.353       .  A
Mn630      Cl643   2.544   1_565  S
C631        C700   1.479       .  S
C632        C690   1.482       .  S
N633        N634   1.320       .  A
N633        N894   1.315   1_554  A
N633       Mn641   2.199       .  S
N634        C899   1.354   1_554  A
N635        N636   1.321       .  A
N635        N892   1.315       .  A
N635       Mn642   2.204       .  S
N636        C645   1.355       .  A
N637        N890   1.315   1_554  A
N637        N638   1.320       .  A
N637       Mn641   2.199       .  S
N638        C900   1.353   1_554  A
N639        N888   1.315       .  A
N639        N640   1.318       .  A
N639       Mn642   2.192       .  S
N640        C644   1.351       .  A
Cl643      Mn874   2.546   1_545  S
C644        N889   1.354       .  A
C644        C660   1.476       .  S
C645        N893   1.353       .  A
C645        C680   1.482       .  S
C646        C902   1.404   1_554  A
C646        C651   1.396       .  A
C646        H653   1.083       .  S
C647        C901   1.404       .  A
C647        C648   1.408       .  A
C648        C649   1.397       .  A
C648        F655   1.357       .  S
C649        C650   1.404       .  A
C649        H654   1.083       .  S
C650        C906   1.408       .  A
C651        C905   1.408   1_554  A
C651        F652   1.357       .  S
C656        C657   1.403       .  A
C656        C661   1.394       .  A
C656        H663   1.083       .  S
C657        C913   1.407       .  A
C658        C912   1.407   1_554  A
C658        C659   1.398       .  A
C658        F665   1.357       .  S
C659        C915   1.404   1_554  A
C659        H664   1.083       .  S
C660        C914   1.404       .  A
C660        C661   1.408       .  A
C661        F662   1.357       .  S
C666        C667   1.404       .  A
C666        C671   1.398       .  A
C666        H673   1.083       .  S
C667        C668   1.408       .  A
C668        C669   1.396       .  A
C668        F675   1.357       .  S
C669        C670   1.404       .  A
C669        H674   1.083       .  S
C670        C671   1.408       .  A
C671        F672   1.357       .  S
C676        C677   1.405       .  A
C676        C681   1.398       .  A
C676        H938   1.083       .  S
C677        C678   1.408       .  A
C678        C679   1.398       .  A
C678        F685   1.357       .  S
C679        C680   1.405       .  A
C679        H684   1.083       .  S
C680        C681   1.409       .  A
C681        F682   1.357       .  S
H683        C931   1.083       .  S
C686        C691   1.399       .  A
C686        H693   1.083       .  S
C687        C688   1.408   1_545  A
C688        C689   1.398       .  A
C688        F695   1.357       .  S
C689        C690   1.405   1_565  A
C689        H694   1.083       .  S
C691        F692   1.357       .  S
C696        C697   1.405   1_565  A
C696        C701   1.398       .  A
C696        H703   1.083       .  S
C698        C699   1.397       .  A
C698        F705   1.357       .  S
C699        C700   1.404       .  A
C699        H704   1.083       .  S
C701        F702   1.357       .  S
C706        C707   1.404       .  A
C706        C711   1.397       .  A
C706        H713   1.083       .  S
C708        C709   1.396       .  A
C708        F715   1.357       .  S
C709        H714   1.083       .  S
C710        C711   1.408       .  A
C711        F712   1.357       .  S
C716        C717   1.405   1_565  A
C716        C721   1.398       .  A
C716        H723   1.083       .  S
C718        C719   1.397       .  A
C718        F725   1.357       .  S
C719        C720   1.404       .  A
C719        H724   1.083       .  S
C721        F722   1.357       .  S
C726        C727   1.405       .  A
C726        C731   1.398       .  A
C726        H733   1.083       .  S
C727       C1748   1.407       .  A
C728       C1747   1.407   1_455  A
C728        C729   1.397       .  A
C728        F735   1.357       .  S
C729        C730   1.405   1_455  A
C729        H734   1.083       .  S
C730       C1751   1.408       .  A
C731       C1750   1.408       .  A
C731        F732   1.357       .  S
C736       C1757   1.404   1_455  A
C736        C741   1.398       .  A
C736        H743   1.083       .  S
C737       C1756   1.404       .  A
C737        C738   1.408       .  A
C738        C739   1.397       .  A
C738        F745   1.357       .  S
C739        C740   1.404       .  A
C739        H744   1.083       .  S
C740       C1761   1.408       .  A
C741       C1760   1.408   1_455  A
C741        F742   1.357       .  S
C746       C1767   1.405       .  A
C746        C751   1.399       .  A
C746        H753   1.083       .  S
C747       C1766   1.405       .  A
C747        C748   1.408   1_655  A
C748        C749   1.396       .  A
C748        F755   1.357       .  S
C749       C1770   1.403   1_455  A
C749        H754   1.083       .  S
C750       C1769   1.403       .  A
C750        C751   1.408       .  A
C751        F752   1.358       .  S
C756       C1777   1.404       .  A
C756        C761   1.397       .  A
C756        H763   1.083       .  S
C757       C1776   1.404       .  A
C757        C758   1.409   1_655  A
C758        C759   1.399       .  A
C758        F765   1.357       .  S
C759        C760   1.405   1_455  A
C759        H764   1.083       .  S
C760       C1781   1.408       .  A
C761       C1780   1.408       .  A
C761        F762   1.357       .  S
N766        N767   1.319       .  A
N766       Mn795   2.196       .  S
N768        N769   1.320       .  A
N768       Mn784   2.202       .  S
N770        N771   1.320       .  A
N770       Mn795   2.199       .  S
N771        C775   1.354   1_565  A
N772        N773   1.319       .  A
N772       Mn784   2.198       .  S
N773        C774   1.353       .  A
C774        C962   1.478       .  S
C775        C952   1.480       .  S
N776       N1802   1.315       .  A
N776        N777   1.320       .  A
N776       Mn806   2.199       .  S
N777        C785   1.354       .  A
N778        N779   1.320       .  A
N778       N1800   1.315   1_455  A
N778       Mn784   2.200       .  S
N779        C786   1.353   1_455  A
N780       N1798   1.315       .  A
N780        N781   1.321       .  A
N780       Mn806   2.206       .  S
N781       C1806   1.355       .  A
N782       N1796   1.315   1_455  A
N782        N783   1.320       .  A
N782       Mn784   2.200       .  S
N783       C1805   1.354   1_455  A
Mn784      Cl808   2.544   1_455  S
C785       N1803   1.354       .  A
C785        C982   1.480       .  S
C786       N1801   1.355       .  A
C786       C1012   1.482       .  S
N787        N788   1.320       .  A
N787       N1813   1.315   1_455  A
N787       Mn795   2.197       .  S
N788       C1816   1.353   1_455  A
N789       N1811   1.315       .  A
N789        N790   1.320       .  A
N789       Mn807   2.200       .  S
N790       C1817   1.354       .  A
N791       N1809   1.315   1_455  A
N791        N792   1.319       .  A
N791       Mn795   2.198       .  S
N792        C797   1.353   1_455  A
N793       N1807   1.315       .  A
N793        N794   1.320       .  A
N793       Mn807   2.201       .  S
N794        C796   1.354       .  A
C796       N1808   1.353       .  A
C796        C995   1.480       .  S
C797       N1810   1.354       .  A
C797       C1002   1.478       .  S
N798        N799   1.320       .  A
N798       Mn806   2.202       .  S
N799        C809   1.354       .  A
N800        N801   1.319       .  A
N800       Mn807   2.200       .  S
N801        C810   1.353   1_565  A
N802        N803   1.321       .  A
N802       Mn806   2.206       .  S
N804        N805   1.320       .  A
N804       Mn807   2.198       .  S
Mn806     Cl1828   2.548       .  S
Mn807     Cl1318   2.545   1_565  S
Cl808     Mn1826   2.548       .  S
Cl808     Mn1317   2.545       .  S
C809        C975   1.480       .  S
C810        C942   1.482       .  S
N811        N812   1.319       .  A
N811       N1837   1.314       .  A
N811       Mn840   2.199       .  S
N812       C1839   1.353       .  A
N813       N1835   1.315   1_455  A
N813        N814   1.320       .  A
N813       Mn829   2.203       .  S
N814       C1840   1.354   1_455  A
N815       N1833   1.315       .  A
N815        N816   1.320       .  A
N815       Mn840   2.195       .  S
N816        C820   1.352       .  A
N817       N1831   1.314   1_455  A
N817        N818   1.320       .  A
N817       Mn829   2.198       .  S
N818        C819   1.354   1_455  A
C819       N1832   1.353       .  A
C819       C1015   1.481       .  S
C820       N1834   1.354       .  A
C820       C1005   1.478       .  S
N821        N822   1.320       .  A
N821       Mn851   2.201       .  S
N822        C830   1.354       .  A
N823        N824   1.320       .  A
N823       Mn829   2.200       .  S
N825        N826   1.320       .  A
N825       Mn851   2.202       .  S
N826        C831   1.354       .  A
N827        N828   1.318       .  A
N827       Mn829   2.196       .  S
Mn829     Cl1618   2.546   1_455  S
C830        C922   1.478       .  S
C831        C932   1.481       .  S
N832        N833   1.318       .  A
N832       Mn840   2.194       .  S
N834        N835   1.318       .  A
N834       Mn852   2.195       .  S
N835        C842   1.353       .  A
N836        N837   1.319       .  A
N836       Mn840   2.193       .  S
N838        N839   1.320       .  A
N838       Mn852   2.200       .  S
N839        C841   1.354       .  A
C841        C905   1.477       .  S
C842        C912   1.475       .  S
N843        N844   1.319       .  A
N843       N1869   1.315   1_455  A
N843       Mn851   2.201       .  S
N844        C854   1.354   1_455  A
N845        N846   1.319       .  A
N845       N1867   1.315       .  A
N845       Mn852   2.197       .  S
N846        C855   1.353       .  A
N847       N1865   1.315   1_455  A
N847        N848   1.320       .  A
N847       Mn851   2.205       .  S
N848       C1875   1.355   1_455  A
N849       N1863   1.315       .  A
N849        N850   1.320       .  A
N849       Mn852   2.200       .  S
N850       C1874   1.354       .  A
Mn851     Cl1873   2.544   1_455  S
Mn852      Cl853   2.547       .  S
Cl853     Mn1594   2.546   1_556  S
Cl853     Mn1871   2.544       .  S
C854       N1870   1.354       .  A
C854        C985   1.481       .  S
C855       N1868   1.355       .  A
C855        C992   1.480       .  S
N856        N857   1.319       .  A
N856       Mn885   2.197       .  S
N857        C864   1.353       .  A
N858        N859   1.319       .  A
N858       Mn874   2.199       .  S
N860        N861   1.319       .  A
N860       Mn885   2.197       .  S
N861        C865   1.353       .  A
N862        N863   1.319       .  A
N862       Mn874   2.197       .  S
C864        C902   1.477       .  S
C865        C925   1.478       .  S
N866        N867   1.319       .  A
N866       Mn896   2.195       .  S
N867        C875   1.353       .  A
N868        N869   1.320       .  A
N868       Mn874   2.198       .  S
N869        C876   1.353   1_565  A
N870        N871   1.320       .  A
N870       Mn896   2.201       .  S
N872        N873   1.319       .  A
N872       Mn874   2.200       .  S
C875        C965   1.477       .  S
C876        C972   1.480       .  S
N877        N878   1.320       .  A
N877       Mn885   2.201       .  S
N879        N880   1.321       .  A
N879       Mn897   2.203       .  S
N881        N882   1.320       .  A
N881       Mn885   2.201       .  S
N882        C887   1.354   1_565  A
N883        N884   1.319       .  A
N883       Mn897   2.197       .  S
N884        C886   1.353       .  A
Mn885      Cl898   2.544   1_565  S
C886        C955   1.479       .  S
C887        C945   1.482       .  S
N888        N889   1.320       .  A
N888       Mn896   2.199       .  S
N890        N891   1.321       .  A
N890       Mn897   2.204       .  S
N891        C900   1.355       .  A
N892        N893   1.320       .  A
N892       Mn896   2.199       .  S
N894        N895   1.318       .  A
N894       Mn897   2.192       .  S
N895        C899   1.351       .  A
C899        C915   1.476       .  S
C900        C935   1.482       .  S
C901        C906   1.396       .  A
C901        H908   1.083       .  S
C902        C903   1.408       .  A
C903        C904   1.397       .  A
C903        F910   1.357       .  S
C904        C905   1.404       .  A
C904        H909   1.083       .  S
C906        F907   1.357       .  S
C911        C912   1.403       .  A
C911        C916   1.394       .  A
C911        H918   1.083       .  S
C913        C914   1.398       .  A
C913        F920   1.357       .  S
C914        H919   1.084       .  S
C915        C916   1.408       .  A
C916        F917   1.357       .  S
C921        C922   1.404       .  A
C921        C926   1.398       .  A
C921        H928   1.083       .  S
C922        C923   1.408   1_556  A
C923        C924   1.396       .  A
C923        F930   1.357       .  S
C924        C925   1.404   1_554  A
C924        H929   1.083       .  S
C925        C926   1.408       .  A
C926        F927   1.357       .  S
C931        C932   1.405   1_554  A
C931        C936   1.398       .  A
C932        C933   1.408       .  A
C933        C934   1.398       .  A
C933        F940   1.357       .  S
C934        C935   1.405       .  A
C934        H939   1.083       .  S
C935        C936   1.409   1_556  A
C936        F937   1.357       .  S
C941        C946   1.399       .  A
C941        H948   1.083       .  S
C942        C943   1.408   1_545  A
C943        C944   1.398       .  A
C943        F950   1.357       .  S
C944        C945   1.405   1_565  A
C944        H949   1.083       .  S
C946        F947   1.357       .  S
C951        C952   1.405   1_565  A
C951        C956   1.398       .  A
C951        H958   1.083       .  S
C953        C954   1.397       .  A
C953        F960   1.357       .  S
C954        C955   1.404       .  A
C954        H959   1.083       .  S
C956        F957   1.357       .  S
C961        C962   1.404       .  A
C961        C966   1.397       .  A
C961        H968   1.083       .  S
C963        C964   1.396       .  A
C963        F970   1.357       .  S
C964        H969   1.083       .  S
C965        C966   1.408       .  A
C966        F967   1.357       .  S
C971        C972   1.405   1_565  A
C971        C976   1.398       .  A
C971        H978   1.083       .  S
C973        C974   1.397       .  A
C973        F980   1.357       .  S
C974        C975   1.404       .  A
C974        H979   1.083       .  S
C976        F977   1.357       .  S
C981        C982   1.405       .  A
C981        C986   1.398       .  A
C981        H988   1.083       .  S
C982       C2003   1.407       .  A
C983       C2002   1.407   1_455  A
C983        C984   1.397       .  A
C983        F990   1.357       .  S
C984        C985   1.405   1_455  A
C984        H989   1.083       .  S
C985       C2006   1.408       .  A
C986       C2005   1.408       .  A
C986        F987   1.357       .  S
C991       C2012   1.404   1_455  A
C991        C996   1.398       .  A
C991        H998   1.083       .  S
C992       C2011   1.404       .  A
C992        C993   1.408       .  A
C993        C994   1.397       .  A
C993       F1000   1.357       .  S
C994        C995   1.404       .  A
C994        H999   1.083       .  S
C995       C2016   1.408       .  A
C996       C2015   1.408   1_455  A
C996        F997   1.357       .  S
C1001      C2022   1.405       .  A
C1001      C1006   1.399       .  A
C1001      H1008   1.083       .  S
C1002      C2021   1.405       .  A
C1002      C1003   1.408   1_655  A
C1003      C1004   1.396       .  A
C1003      F1010   1.357       .  S
C1004      C2025   1.403   1_455  A
C1004      H1009   1.083       .  S
C1005      C2024   1.403       .  A
C1005      C1006   1.408       .  A
C1006      F1007   1.357       .  S
C1011      C2032   1.404       .  A
C1011      C1016   1.397       .  A
C1011      H1018   1.083       .  S
C1012      C2031   1.404       .  A
C1012      C1013   1.409   1_655  A
C1013      C1014   1.399       .  A
C1013      F1020   1.357       .  S
C1014      C1015   1.405   1_455  A
C1014      H1019   1.083       .  S
C1015      C2036   1.408       .  A
C1016      C2035   1.408       .  A
C1016      F1017   1.357       .  S
N1021      N1022   1.319       .  A
N1021      N1537   1.315       .  A
N1021     Mn1050   2.196       .  S
N1022      C1539   1.353       .  A
N1023      N1535   1.315   1_545  A
N1023      N1024   1.320       .  A
N1023     Mn1039   2.202       .  S
N1024      C1540   1.354       .  A
N1025      N1533   1.315       .  A
N1025      N1026   1.320       .  A
N1025     Mn1050   2.199       .  S
N1026      C1030   1.354       .  A
N1027      N1531   1.315   1_545  A
N1027      N1028   1.319       .  A
N1027     Mn1039   2.198       .  S
N1028      C1029   1.353       .  A
C1029      N1532   1.353   1_545  A
C1029      C1217   1.478       .  S
C1030      N1534   1.354       .  A
C1030      C1207   1.480       .  S
N1031      N1032   1.320       .  A
N1031     Mn1061   2.199       .  S
N1032      C1040   1.354       .  A
N1033      N1034   1.320       .  A
N1033     Mn1039   2.200       .  S
N1034      C1041   1.353       .  A
N1035      N1036   1.321       .  A
N1035     Mn1061   2.206       .  S
N1037      N1038   1.320       .  A
N1037     Mn1039   2.200       .  S
Mn1039    Cl1063   2.544       .  S
C1040      C1237   1.480       .  S
C1041      C1267   1.482       .  S
N1042      N1043   1.320       .  A
N1042     Mn1050   2.197       .  S
N1044      N1045   1.320       .  A
N1044     Mn1062   2.200       .  S
N1046      N1047   1.319       .  A
N1046     Mn1050   2.198       .  S
N1047      C1052   1.353       .  A
N1048      N1049   1.320       .  A
N1048     Mn1062   2.201       .  S
N1049      C1051   1.354       .  A
Mn1050    Cl1573   2.547       .  S
C1051      C1250   1.480       .  S
C1052      C1257   1.478       .  S
N1053      N1054   1.320       .  A
N1053      N1569   1.315   1_545  A
N1053     Mn1061   2.202       .  S
N1054      C1064   1.354       .  A
N1055      N1056   1.319       .  A
N1055      N1567   1.315       .  A
N1055     Mn1062   2.200       .  S
N1056      C1065   1.353       .  A
N1057      N1565   1.315   1_545  A
N1057      N1058   1.321       .  A
N1057     Mn1061   2.206       .  S
N1058      C1575   1.355       .  A
N1059      N1563   1.315       .  A
N1059      N1060   1.320       .  A
N1059     Mn1062   2.198       .  S
N1060      C1574   1.353       .  A
Cl1063    Mn1560   2.547   1_545  S
C1064      N1570   1.353   1_545  A
C1064      C1230   1.480   1_545  S
C1065      N1568   1.355       .  A
C1065      C1197   1.482       .  S
N1066      N1067   1.319       .  A
N1066     Mn1095   2.199       .  S
N1068      N1069   1.320       .  A
N1068     Mn1084   2.203       .  S
N1070      N1071   1.320       .  A
N1070     Mn1095   2.195       .  S
N1071      C1075   1.352       .  A
N1072      N1073   1.320       .  A
N1072     Mn1084   2.198       .  S
N1073      C1074   1.354       .  A
C1074      C1270   1.481       .  S
C1075      C1260   1.478       .  S
N1076      N1337   1.315       .  A
N1076      N1077   1.320       .  A
N1076     Mn1106   2.201       .  S
N1077      C1085   1.354       .  A
N1078      N1079   1.320       .  A
N1078      N1335   1.315   1_554  A
N1078     Mn1084   2.200       .  S
N1079      C1341   1.354   1_554  A
N1080      N1333   1.315       .  A
N1080      N1081   1.320       .  A
N1080     Mn1106   2.202       .  S
N1081      C1086   1.354       .  A
N1082      N1331   1.315   1_554  A
N1082      N1083   1.318       .  A
N1082     Mn1084   2.196       .  S
N1083      C1340   1.352   1_554  A
C1085      N1338   1.352       .  A
C1085      C1177   1.478       .  S
C1086      N1334   1.354       .  A
C1086      C1187   1.481       .  S
N1087      N1088   1.318       .  A
N1087      N1348   1.315   1_554  A
N1087     Mn1095   2.194       .  S
N1088      C1351   1.352   1_554  A
N1089      N1346   1.315       .  A
N1089      N1090   1.318       .  A
N1089     Mn1107   2.195       .  S
N1090      C1097   1.353       .  A
N1091      N1344   1.315   1_554  A
N1091      N1092   1.319       .  A
N1091     Mn1095   2.193       .  S
N1092      C1352   1.353   1_554  A
N1093      N1342   1.315       .  A
N1093      N1094   1.320       .  A
N1093     Mn1107   2.200       .  S
N1094      C1096   1.354       .  A
Mn1095    Cl1363   2.543   1_554  S
C1096      N1343   1.352       .  A
C1096      C1160   1.477       .  S
C1097      N1347   1.353       .  A
C1097      C1167   1.475       .  S
N1098      N1099   1.319       .  A
N1098     Mn1106   2.201       .  S
N1099      C1109   1.354       .  A
N1100      N1101   1.319       .  A
N1100     Mn1107   2.197       .  S
N1101      C1110   1.353       .  A
N1102      N1103   1.320       .  A
N1102     Mn1106   2.205       .  S
N1104      N1105   1.320       .  A
N1104     Mn1107   2.200       .  S
Mn1107    Cl1108   2.547       .  S
Cl1108    Mn1350   2.543       .  S
C1109      C1240   1.481       .  S
C1110      C1247   1.480       .  S
N1111      N1112   1.319       .  A
N1111      N1372   1.315       .  A
N1111     Mn1140   2.197       .  S
N1112      C1119   1.353       .  A
N1113      N1370   1.315   1_554  A
N1113      N1114   1.319       .  A
N1113     Mn1129   2.199       .  S
N1114      C1375   1.354   1_554  A
N1115      N1368   1.315       .  A
N1115      N1116   1.319       .  A
N1115     Mn1140   2.197       .  S
N1116      C1120   1.353       .  A
N1117      N1366   1.315   1_554  A
N1117      N1118   1.319       .  A
N1117     Mn1129   2.197       .  S
N1118      C1374   1.353   1_554  A
C1119      N1373   1.353       .  A
C1119      C1157   1.477       .  S
C1120      N1369   1.354       .  A
C1120      C1180   1.478       .  S
N1121      N1637   1.315   1_545  A
N1121      N1122   1.319       .  A
N1121     Mn1151   2.195       .  S
N1122      C1130   1.353       .  A
N1123      N1124   1.320       .  A
N1123      N1635   1.315       .  A
N1123     Mn1129   2.198       .  S
N1124      C1131   1.353       .  A
N1125      N1633   1.315   1_545  A
N1125      N1126   1.320       .  A
N1125     Mn1151   2.201       .  S
N1126      C1641   1.354       .  A
N1127      N1631   1.315       .  A
N1127      N1128   1.319       .  A
N1127     Mn1129   2.200       .  S
N1128      C1640   1.354       .  A
Mn1129    Cl1408   2.546   1_554  S
C1130      N1638   1.354   1_545  A
C1130      C1220   1.477       .  S
C1131      N1636   1.354       .  A
C1131      C1227   1.480       .  S
N1132      N1133   1.320       .  A
N1132      N1648   1.315       .  A
N1132     Mn1140   2.201       .  S
N1133      C1651   1.354       .  A
N1134      N1646   1.315   1_545  A
N1134      N1135   1.321       .  A
N1134     Mn1152   2.203       .  S
N1135      C1652   1.354       .  A
N1136      N1644   1.315       .  A
N1136      N1137   1.320       .  A
N1136     Mn1140   2.201       .  S
N1137      C1142   1.354       .  A
N1138      N1642   1.315   1_545  A
N1138      N1139   1.319       .  A
N1138     Mn1152   2.197       .  S
N1139      C1141   1.353       .  A
Mn1140    Cl1153   2.544       .  S
C1141      N1643   1.354   1_545  A
C1141      C1210   1.479       .  S
C1142      N1645   1.354       .  A
C1142      C1200   1.482       .  S
N1143      N1144   1.320       .  A
N1143      N1404   1.315   1_554  A
N1143     Mn1151   2.199       .  S
N1144      C1409   1.354   1_554  A
N1145      N1146   1.321       .  A
N1145      N1402   1.315       .  A
N1145     Mn1152   2.204       .  S
N1146      C1155   1.355       .  A
N1147      N1400   1.315   1_554  A
N1147      N1148   1.320       .  A
N1147     Mn1151   2.199       .  S
N1148      C1410   1.353   1_554  A
N1149      N1398   1.315       .  A
N1149      N1150   1.318       .  A
N1149     Mn1152   2.192       .  S
N1150      C1154   1.351       .  A
Mn1151    Cl1918   2.546   1_554  S
Mn1152    Cl1663   2.545       .  S
Cl1153    Mn1384   2.546       .  S
Cl1153    Mn1916   2.546       .  S
Cl1153    Mn1662   2.545       .  S
C1154      N1399   1.354       .  A
C1154      C1170   1.476       .  S
C1155      N1403   1.353       .  A
C1155      C1190   1.482       .  S
C1156      C1412   1.404   1_554  A
C1156      C1161   1.396       .  A
C1156      H1163   1.083       .  S
C1157      C1411   1.404       .  A
C1157      C1158   1.408       .  A
C1158      C1159   1.397       .  A
C1158      F1165   1.357       .  S
C1159      C1160   1.404       .  A
C1159      H1164   1.083       .  S
C1160      C1416   1.408       .  A
C1161      C1415   1.408   1_554  A
C1161      F1162   1.357       .  S
C1166      C1167   1.403       .  A
C1166      C1171   1.394       .  A
C1166      H1173   1.083       .  S
C1167      C1423   1.407       .  A
C1168      C1422   1.407   1_554  A
C1168      C1169   1.398       .  A
C1168      F1175   1.357       .  S
C1169      C1425   1.404   1_554  A
C1169      H1174   1.083       .  S
C1170      C1424   1.404       .  A
C1170      C1171   1.408       .  A
C1171      F1172   1.357       .  S
C1176      C1177   1.404       .  A
C1176      C1181   1.398       .  A
C1176      H1183   1.083       .  S
C1177      C1178   1.408       .  A
C1178      C1179   1.396       .  A
C1178      F1185   1.357       .  S
C1179      C1180   1.404       .  A
C1179      H1184   1.083       .  S
C1180      C1181   1.408       .  A
C1181      F1182   1.357       .  S
C1186      C1187   1.405       .  A
C1186      C1191   1.398       .  A
C1186      H1448   1.083       .  S
C1187      C1188   1.408       .  A
C1188      C1189   1.398       .  A
C1188      F1195   1.357       .  S
C1189      C1190   1.405       .  A
C1189      H1194   1.083       .  S
C1190      C1191   1.409       .  A
C1191      F1192   1.357       .  S
H1193      C1441   1.083       .  S
C1196      C1707   1.405       .  A
C1196      C1201   1.399       .  A
C1196      H1203   1.083       .  S
C1197      C1706   1.405       .  A
C1197      C1198   1.408       .  A
C1198      C1199   1.398       .  A
C1198      F1205   1.357       .  S
C1199      C1200   1.405       .  A
C1199      H1204   1.083       .  S
C1200      C1711   1.408       .  A
C1201      C1710   1.408       .  A
C1201      F1202   1.357       .  S
C1206      C1207   1.405       .  A
C1206      C1211   1.398       .  A
C1206      H1213   1.083       .  S
C1207      C1718   1.408       .  A
C1208      C1717   1.408       .  A
C1208      C1209   1.397       .  A
C1208      F1215   1.357       .  S
C1209      C1210   1.404       .  A
C1209      H1214   1.083       .  S
C1210      C1721   1.407   1_545  A
C1211      C1720   1.407       .  A
C1211      F1212   1.357       .  S
C1216      C1217   1.404       .  A
C1216      C1221   1.397       .  A
C1216      H1223   1.083       .  S
C1217      C1728   1.407   1_545  A
C1218      C1727   1.407       .  A
C1218      C1219   1.396       .  A
C1218      F1225   1.357       .  S
C1219      C1730   1.404       .  A
C1219      H1224   1.083       .  S
C1220      C1729   1.404   1_545  A
C1220      C1221   1.408       .  A
C1221      F1222   1.357       .  S
C1226      C1227   1.405       .  A
C1226      C1231   1.398       .  A
C1226      H1233   1.083       .  S
C1227      C1738   1.407       .  A
C1228      C1737   1.407       .  A
C1228      C1229   1.397       .  A
C1228      F1235   1.357       .  S
C1229      C1230   1.404   1_545  A
C1229      H1234   1.083       .  S
C1230      C1741   1.409       .  A
C1231      C1740   1.409       .  A
C1231      F1232   1.357       .  S
C1236      C1237   1.405       .  A
C1236      C1241   1.398       .  A
C1236      H1243   1.083       .  S
C1238      C1239   1.397       .  A
C1238      F1245   1.357       .  S
C1239      C1240   1.405       .  A
C1239      H1244   1.083       .  S
C1241      F1242   1.357       .  S
C1246      C1251   1.398       .  A
C1246      H1253   1.083       .  S
C1247      C1248   1.408       .  A
C1248      C1249   1.397       .  A
C1248      F1255   1.357       .  S
C1249      C1250   1.404       .  A
C1249      H1254   1.083       .  S
C1251      F1252   1.357       .  S
C1256      C1261   1.399       .  A
C1256      H1263   1.083       .  S
C1257      C1258   1.408       .  A
C1258      C1259   1.396       .  A
C1258      F1265   1.357       .  S
C1259      H1264   1.083       .  S
C1260      C1261   1.408       .  A
C1261      F1262   1.358       .  S
C1266      C1271   1.397       .  A
C1266      H1273   1.083       .  S
C1267      C1268   1.409       .  A
C1268      C1269   1.399       .  A
C1268      F1275   1.357       .  S
C1269      C1270   1.405       .  A
C1269      H1274   1.083       .  S
C1271      F1272   1.357       .  S
N1276      N1277   1.319       .  A
N1276      N1792   1.315       .  A
N1276     Mn1305   2.196       .  S
N1277      C1794   1.353       .  A
N1278      N1790   1.315   1_545  A
N1278      N1279   1.320       .  A
N1278     Mn1294   2.202       .  S
N1279      C1795   1.354       .  A
N1280      N1788   1.315       .  A
N1280      N1281   1.320       .  A
N1280     Mn1305   2.199       .  S
N1281      C1285   1.354       .  A
N1282      N1786   1.315   1_545  A
N1282      N1283   1.319       .  A
N1282     Mn1294   2.198       .  S
N1283      C1284   1.353       .  A
C1284      N1787   1.353   1_545  A
C1284      C1472   1.478       .  S
C1285      N1789   1.354       .  A
C1285      C1462   1.480       .  S
N1286      N1287   1.320       .  A
N1286     Mn1316   2.199       .  S
N1287      C1295   1.354       .  A
N1288      N1289   1.320       .  A
N1288     Mn1294   2.200       .  S
N1289      C1296   1.353       .  A
N1290      N1291   1.321       .  A
N1290     Mn1316   2.206       .  S
N1292      N1293   1.320       .  A
N1292     Mn1294   2.200       .  S
Mn1294    Cl1318   2.544       .  S
C1295      C1492   1.480       .  S
C1296      C1522   1.482       .  S
N1297      N1298   1.320       .  A
N1297     Mn1305   2.197       .  S
N1299      N1300   1.320       .  A
N1299     Mn1317   2.200       .  S
N1301      N1302   1.319       .  A
N1301     Mn1305   2.198       .  S
N1302      C1307   1.353       .  A
N1303      N1304   1.320       .  A
N1303     Mn1317   2.201       .  S
N1304      C1306   1.354       .  A
Mn1305    Cl1828   2.547       .  S
C1306      C1505   1.480       .  S
C1307      C1512   1.478       .  S
N1308      N1309   1.320       .  A
N1308      N1824   1.315   1_545  A
N1308     Mn1316   2.202       .  S
N1309      C1319   1.354       .  A
N1310      N1311   1.319       .  A
N1310      N1822   1.315       .  A
N1310     Mn1317   2.200       .  S
N1311      C1320   1.353       .  A
N1312      N1820   1.315   1_545  A
N1312      N1313   1.321       .  A
N1312     Mn1316   2.206       .  S
N1313      C1830   1.355       .  A
N1314      N1818   1.315       .  A
N1314      N1315   1.320       .  A
N1314     Mn1317   2.198       .  S
N1315      C1829   1.353       .  A
Cl1318    Mn1815   2.547   1_545  S
C1319      N1825   1.353   1_545  A
C1319      C1485   1.480   1_545  S
C1320      N1823   1.355       .  A
C1320      C1452   1.482       .  S
N1321      N1322   1.319       .  A
N1321     Mn1350   2.199       .  S
N1323      N1324   1.320       .  A
N1323     Mn1339   2.203       .  S
N1325      N1326   1.320       .  A
N1325     Mn1350   2.195       .  S
N1326      C1330   1.352       .  A
N1327      N1328   1.320       .  A
N1327     Mn1339   2.198       .  S
N1328      C1329   1.354       .  A
C1329      C1525   1.481       .  S
C1330      C1515   1.478       .  S
N1331      N1332   1.320       .  A
N1331     Mn1361   2.201       .  S
N1332      C1340   1.354       .  A
N1333      N1334   1.320       .  A
N1333     Mn1339   2.200       .  S
N1335      N1336   1.320       .  A
N1335     Mn1361   2.202       .  S
N1336      C1341   1.354       .  A
N1337      N1338   1.318       .  A
N1337     Mn1339   2.196       .  S
C1340      C1432   1.478       .  S
C1341      C1442   1.481       .  S
N1342      N1343   1.318       .  A
N1342     Mn1350   2.194       .  S
N1344      N1345   1.318       .  A
N1344     Mn1362   2.195       .  S
N1345      C1352   1.353       .  A
N1346      N1347   1.319       .  A
N1346     Mn1350   2.193       .  S
N1348      N1349   1.320       .  A
N1348     Mn1362   2.200       .  S
N1349      C1351   1.354       .  A
C1351      C1415   1.477       .  S
C1352      C1422   1.475       .  S
N1353      N1354   1.319       .  A
N1353     Mn1361   2.201       .  S
N1354      C1364   1.354       .  A
N1355      N1356   1.319       .  A
N1355     Mn1362   2.197       .  S
N1356      C1365   1.353       .  A
N1357      N1358   1.320       .  A
N1357     Mn1361   2.205       .  S
N1359      N1360   1.320       .  A
N1359     Mn1362   2.200       .  S
Mn1362    Cl1363   2.547       .  S
C1364      C1495   1.481       .  S
C1365      C1502   1.480       .  S
N1366      N1367   1.319       .  A
N1366     Mn1395   2.197       .  S
N1367      C1374   1.353       .  A
N1368      N1369   1.319       .  A
N1368     Mn1384   2.199       .  S
N1370      N1371   1.319       .  A
N1370     Mn1395   2.197       .  S
N1371      C1375   1.353       .  A
N1372      N1373   1.319       .  A
N1372     Mn1384   2.197       .  S
C1374      C1412   1.477       .  S
C1375      C1435   1.478       .  S
N1376      N1892   1.315   1_545  A
N1376      N1377   1.319       .  A
N1376     Mn1406   2.195       .  S
N1377      C1385   1.353       .  A
N1378      N1379   1.320       .  A
N1378      N1890   1.315       .  A
N1378     Mn1384   2.198       .  S
N1379      C1386   1.353       .  A
N1380      N1888   1.315   1_545  A
N1380      N1381   1.320       .  A
N1380     Mn1406   2.201       .  S
N1381      C1896   1.354       .  A
N1382      N1886   1.315       .  A
N1382      N1383   1.319       .  A
N1382     Mn1384   2.200       .  S
N1383      C1895   1.354       .  A
C1385      N1893   1.354   1_545  A
C1385      C1475   1.477       .  S
C1386      N1891   1.354       .  A
C1386      C1482   1.480       .  S
N1387      N1388   1.320       .  A
N1387      N1903   1.315       .  A
N1387     Mn1395   2.201       .  S
N1388      C1906   1.354       .  A
N1389      N1901   1.315   1_545  A
N1389      N1390   1.320       .  A
N1389     Mn1407   2.203       .  S
N1390      C1907   1.354       .  A
N1391      N1899   1.315       .  A
N1391      N1392   1.320       .  A
N1391     Mn1395   2.201       .  S
N1392      C1397   1.354       .  A
N1393      N1897   1.315   1_545  A
N1393      N1394   1.319       .  A
N1393     Mn1407   2.197       .  S
N1394      C1396   1.353       .  A
Mn1395    Cl1408   2.544       .  S
C1396      N1898   1.354   1_545  A
C1396      C1465   1.479       .  S
C1397      N1900   1.354       .  A
C1397      C1455   1.482       .  S
N1398      N1399   1.320       .  A
N1398     Mn1406   2.199       .  S
N1400      N1401   1.321       .  A
N1400     Mn1407   2.204       .  S
N1401      C1410   1.355       .  A
N1402      N1403   1.320       .  A
N1402     Mn1406   2.199       .  S
N1404      N1405   1.318       .  A
N1404     Mn1407   2.192       .  S
N1405      C1409   1.351       .  A
Mn1406    Cl1663   2.546       .  S
Mn1407    Cl1918   2.545       .  S
Cl1408    Mn1661   2.546   1_556  S
Cl1408    Mn1917   2.545       .  S
C1409      C1425   1.476       .  S
C1410      C1445   1.482       .  S
C1411      C1416   1.396       .  A
C1411      H1418   1.083       .  S
C1412      C1413   1.408       .  A
C1413      C1414   1.397       .  A
C1413      F1420   1.357       .  S
C1414      C1415   1.404       .  A
C1414      H1419   1.083       .  S
C1416      F1417   1.357       .  S
C1421      C1422   1.403       .  A
C1421      C1426   1.394       .  A
C1421      H1428   1.083       .  S
C1423      C1424   1.398       .  A
C1423      F1430   1.357       .  S
C1424      H1429   1.083       .  S
C1425      C1426   1.408       .  A
C1426      F1427   1.357       .  S
C1431      C1432   1.404       .  A
C1431      C1436   1.398       .  A
C1431      H1438   1.083       .  S
C1432      C1433   1.408   1_556  A
C1433      C1434   1.396       .  A
C1433      F1440   1.357       .  S
C1434      C1435   1.404   1_554  A
C1434      H1439   1.083       .  S
C1435      C1436   1.408       .  A
C1436      F1437   1.357       .  S
C1441      C1442   1.405   1_554  A
C1441      C1446   1.398       .  A
C1442      C1443   1.408       .  A
C1443      C1444   1.398       .  A
C1443      F1450   1.357       .  S
C1444      C1445   1.405       .  A
C1444      H1449   1.083       .  S
C1445      C1446   1.409   1_556  A
C1446      F1447   1.357       .  S
C1451      C1962   1.405       .  A
C1451      C1456   1.399       .  A
C1451      H1458   1.083       .  S
C1452      C1961   1.405       .  A
C1452      C1453   1.408       .  A
C1453      C1454   1.398       .  A
C1453      F1460   1.357       .  S
C1454      C1455   1.405       .  A
C1454      H1459   1.083       .  S
C1455      C1966   1.408       .  A
C1456      C1965   1.408       .  A
C1456      F1457   1.357       .  S
C1461      C1462   1.405       .  A
C1461      C1466   1.398       .  A
C1461      H1468   1.083       .  S
C1462      C1973   1.408       .  A
C1463      C1972   1.408       .  A
C1463      C1464   1.397       .  A
C1463      F1470   1.357       .  S
C1464      C1465   1.404       .  A
C1464      H1469   1.083       .  S
C1465      C1976   1.407   1_545  A
C1466      C1975   1.407       .  A
C1466      F1467   1.357       .  S
C1471      C1472   1.404       .  A
C1471      C1476   1.397       .  A
C1471      H1478   1.083       .  S
C1472      C1983   1.407   1_545  A
C1473      C1982   1.407       .  A
C1473      C1474   1.396       .  A
C1473      F1480   1.357       .  S
C1474      C1985   1.404       .  A
C1474      H1479   1.083       .  S
C1475      C1984   1.404   1_545  A
C1475      C1476   1.408       .  A
C1476      F1477   1.357       .  S
C1481      C1482   1.405       .  A
C1481      C1486   1.398       .  A
C1481      H1488   1.083       .  S
C1482      C1993   1.407       .  A
C1483      C1992   1.407       .  A
C1483      C1484   1.397       .  A
C1483      F1490   1.357       .  S
C1484      C1485   1.404   1_545  A
C1484      H1489   1.083       .  S
C1485      C1996   1.409       .  A
C1486      C1995   1.409       .  A
C1486      F1487   1.357       .  S
C1491      C1492   1.405       .  A
C1491      C1496   1.398       .  A
C1491      H1498   1.083       .  S
C1493      C1494   1.397       .  A
C1493      F1500   1.357       .  S
C1494      C1495   1.405       .  A
C1494      H1499   1.083       .  S
C1496      F1497   1.357       .  S
C1501      C1506   1.398       .  A
C1501      H1508   1.083       .  S
C1502      C1503   1.408       .  A
C1503      C1504   1.397       .  A
C1503      F1510   1.357       .  S
C1504      C1505   1.404       .  A
C1504      H1509   1.083       .  S
C1506      F1507   1.357       .  S
C1511      C1516   1.399       .  A
C1511      H1518   1.083       .  S
C1512      C1513   1.408       .  A
C1513      C1514   1.396       .  A
C1513      F1520   1.357       .  S
C1514      H1519   1.083       .  S
C1515      C1516   1.408       .  A
C1516      F1517   1.358       .  S
C1521      C1526   1.397       .  A
C1521      H1528   1.083       .  S
C1522      C1523   1.409       .  A
C1523      C1524   1.399       .  A
C1523      F1530   1.357       .  S
C1524      C1525   1.405       .  A
C1524      H1529   1.083       .  S
C1526      F1527   1.357       .  S
N1531      N1532   1.319       .  A
N1531     Mn1560   2.196       .  S
N1533      N1534   1.320       .  A
N1533     Mn1549   2.202       .  S
N1535      N1536   1.320       .  A
N1535     Mn1560   2.199       .  S
N1536      C1540   1.354   1_565  A
N1537      N1538   1.319       .  A
N1537     Mn1549   2.198       .  S
N1538      C1539   1.353       .  A
C1539      C1727   1.478       .  S
C1540      C1717   1.480       .  S
N1541      N1542   1.320       .  A
N1541     Mn1571   2.199       .  S
N1542      C1550   1.354       .  A
N1543      N1544   1.320       .  A
N1543     Mn1549   2.200       .  S
N1544      C1551   1.353       .  A
N1545      N1546   1.321       .  A
N1545     Mn1571   2.206       .  S
N1547      N1548   1.320       .  A
N1547     Mn1549   2.200       .  S
Mn1549    Cl1573   2.544       .  S
C1550      C1747   1.480       .  S
C1551      C1777   1.482       .  S
N1552      N1553   1.320       .  A
N1552     Mn1560   2.197       .  S
N1554      N1555   1.320       .  A
N1554     Mn1572   2.200       .  S
N1556      N1557   1.319       .  A
N1556     Mn1560   2.198       .  S
N1557      C1562   1.353       .  A
N1558      N1559   1.320       .  A
N1558     Mn1572   2.201       .  S
N1559      C1561   1.354       .  A
C1561      C1760   1.480       .  S
C1562      C1767   1.478       .  S
N1563      N1564   1.320       .  A
N1563     Mn1571   2.202       .  S
N1564      C1574   1.354       .  A
N1565      N1566   1.319       .  A
N1565     Mn1572   2.200       .  S
N1566      C1575   1.353   1_565  A
N1567      N1568   1.321       .  A
N1567     Mn1571   2.206       .  S
N1569      N1570   1.320       .  A
N1569     Mn1572   2.198       .  S
C1574      C1740   1.480       .  S
C1575      C1707   1.482       .  S
N1576      N1577   1.319       .  A
N1576     Mn1605   2.199       .  S
N1578      N1579   1.320       .  A
N1578     Mn1594   2.203       .  S
N1580      N1581   1.320       .  A
N1580     Mn1605   2.195       .  S
N1581      C1585   1.352       .  A
N1582      N1583   1.320       .  A
N1582     Mn1594   2.198       .  S
N1583      C1584   1.354       .  A
C1584      C1780   1.481       .  S
C1585      C1770   1.478       .  S
N1586      N1847   1.315       .  A
N1586      N1587   1.320       .  A
N1586     Mn1616   2.201       .  S
N1587      C1595   1.354       .  A
N1588      N1589   1.320       .  A
N1588      N1845   1.315   1_554  A
N1588     Mn1594   2.200       .  S
N1589      C1851   1.354   1_554  A
N1590      N1843   1.315       .  A
N1590      N1591   1.320       .  A
N1590     Mn1616   2.202       .  S
N1591      C1596   1.354       .  A
N1592      N1841   1.315   1_554  A
N1592      N1593   1.318       .  A
N1592     Mn1594   2.196       .  S
N1593      C1850   1.352   1_554  A
C1595      N1848   1.352       .  A
C1595      C1687   1.478       .  S
C1596      N1844   1.354       .  A
C1596      C1697   1.481       .  S
N1597      N1598   1.318       .  A
N1597      N1858   1.315   1_554  A
N1597     Mn1605   2.194       .  S
N1598      C1861   1.352   1_554  A
N1599      N1856   1.315       .  A
N1599      N1600   1.318       .  A
N1599     Mn1617   2.195       .  S
N1600      C1607   1.353       .  A
N1601      N1854   1.315   1_554  A
N1601      N1602   1.319       .  A
N1601     Mn1605   2.193       .  S
N1602      C1862   1.353   1_554  A
N1603      N1852   1.315       .  A
N1603      N1604   1.320       .  A
N1603     Mn1617   2.200       .  S
N1604      C1606   1.354       .  A
Mn1605    Cl1873   2.543   1_554  S
C1606      N1853   1.352       .  A
C1606      C1670   1.477       .  S
C1607      N1857   1.353       .  A
C1607      C1677   1.475       .  S
N1608      N1609   1.319       .  A
N1608     Mn1616   2.201       .  S
N1609      C1619   1.354       .  A
N1610      N1611   1.319       .  A
N1610     Mn1617   2.197       .  S
N1611      C1620   1.353       .  A
N1612      N1613   1.320       .  A
N1612     Mn1616   2.205       .  S
N1614      N1615   1.320       .  A
N1614     Mn1617   2.200       .  S
Mn1617    Cl1618   2.547       .  S
Cl1618    Mn1860   2.543       .  S
C1619      C1750   1.481       .  S
C1620      C1757   1.480       .  S
N1621      N1622   1.319       .  A
N1621      N1882   1.315       .  A
N1621     Mn1650   2.197       .  S
N1622      C1629   1.353       .  A
N1623      N1880   1.315   1_554  A
N1623      N1624   1.319       .  A
N1623     Mn1639   2.199       .  S
N1624      C1885   1.354   1_554  A
N1625      N1878   1.315       .  A
N1625      N1626   1.319       .  A
N1625     Mn1650   2.197       .  S
N1626      C1630   1.353       .  A
N1627      N1876   1.315   1_554  A
N1627      N1628   1.319       .  A
N1627     Mn1639   2.197       .  S
N1628      C1884   1.353   1_554  A
C1629      N1883   1.353       .  A
C1629      C1667   1.477       .  S
C1630      N1879   1.354       .  A
C1630      C1690   1.478       .  S
N1631      N1632   1.319       .  A
N1631     Mn1661   2.195       .  S
N1632      C1640   1.353       .  A
N1633      N1634   1.320       .  A
N1633     Mn1639   2.198       .  S
N1634      C1641   1.353   1_565  A
N1635      N1636   1.320       .  A
N1635     Mn1661   2.201       .  S
N1637      N1638   1.319       .  A
N1637     Mn1639   2.200       .  S
Mn1639    Cl1918   2.546   1_564  S
C1640      C1730   1.477       .  S
C1641      C1737   1.480       .  S
N1642      N1643   1.320       .  A
N1642     Mn1650   2.201       .  S
N1644      N1645   1.320       .  A
N1644     Mn1662   2.203       .  S
N1646      N1647   1.320       .  A
N1646     Mn1650   2.201       .  S
N1647      C1652   1.354   1_565  A
N1648      N1649   1.319       .  A
N1648     Mn1662   2.197       .  S
N1649      C1651   1.353       .  A
Mn1650    Cl1663   2.544   1_565  S
C1651      C1720   1.479       .  S
C1652      C1710   1.482       .  S
N1653      N1654   1.320       .  A
N1653      N1914   1.315   1_554  A
N1653     Mn1661   2.199       .  S
N1654      C1919   1.354   1_554  A
N1655      N1656   1.321       .  A
N1655      N1912   1.315       .  A
N1655     Mn1662   2.204       .  S
N1656      C1665   1.355       .  A
N1657      N1910   1.315   1_554  A
N1657      N1658   1.320       .  A
N1657     Mn1661   2.199       .  S
N1658      C1920   1.353   1_554  A
N1659      N1908   1.315       .  A
N1659      N1660   1.318       .  A
N1659     Mn1662   2.192       .  S
N1660      C1664   1.351       .  A
Cl1663    Mn1894   2.546   1_545  S
C1664      N1909   1.354       .  A
C1664      C1680   1.476       .  S
C1665      N1913   1.353       .  A
C1665      C1700   1.482       .  S
C1666      C1922   1.404   1_554  A
C1666      C1671   1.396       .  A
C1666      H1673   1.083       .  S
C1667      C1921   1.404       .  A
C1667      C1668   1.408       .  A
C1668      C1669   1.397       .  A
C1668      F1675   1.357       .  S
C1669      C1670   1.404       .  A
C1669      H1674   1.083       .  S
C1670      C1926   1.408       .  A
C1671      C1925   1.408   1_554  A
C1671      F1672   1.357       .  S
C1676      C1677   1.403       .  A
C1676      C1681   1.394       .  A
C1676      H1683   1.083       .  S
C1677      C1933   1.407       .  A
C1678      C1932   1.407   1_554  A
C1678      C1679   1.398       .  A
C1678      F1685   1.357       .  S
C1679      C1935   1.404   1_554  A
C1679      H1684   1.083       .  S
C1680      C1934   1.404       .  A
C1680      C1681   1.408       .  A
C1681      F1682   1.357       .  S
C1686      C1687   1.404       .  A
C1686      C1691   1.398       .  A
C1686      H1693   1.083       .  S
C1687      C1688   1.408       .  A
C1688      C1689   1.396       .  A
C1688      F1695   1.357       .  S
C1689      C1690   1.404       .  A
C1689      H1694   1.083       .  S
C1690      C1691   1.408       .  A
C1691      F1692   1.357       .  S
C1696      C1697   1.405       .  A
C1696      C1701   1.398       .  A
C1696      H1958   1.083       .  S
C1697      C1698   1.408       .  A
C1698      C1699   1.398       .  A
C1698      F1705   1.357       .  S
C1699      C1700   1.405       .  A
C1699      H1704   1.083       .  S
C1700      C1701   1.409       .  A
C1701      F1702   1.357       .  S
H1703      C1951   1.083       .  S
C1706      C1711   1.399       .  A
C1706      H1713   1.083       .  S
C1707      C1708   1.408   1_545  A
C1708      C1709   1.398       .  A
C1708      F1715   1.357       .  S
C1709      C1710   1.405   1_565  A
C1709      H1714   1.083       .  S
C1711      F1712   1.357       .  S
C1716      C1717   1.405   1_565  A
C1716      C1721   1.398       .  A
C1716      H1723   1.083       .  S
C1718      C1719   1.397       .  A
C1718      F1725   1.357       .  S
C1719      C1720   1.404       .  A
C1719      H1724   1.083       .  S
C1721      F1722   1.357       .  S
C1726      C1727   1.404       .  A
C1726      C1731   1.397       .  A
C1726      H1733   1.083       .  S
C1728      C1729   1.396       .  A
C1728      F1735   1.357       .  S
C1729      H1734   1.083       .  S
C1730      C1731   1.408       .  A
C1731      F1732   1.357       .  S
C1736      C1737   1.405   1_565  A
C1736      C1741   1.398       .  A
C1736      H1743   1.083       .  S
C1738      C1739   1.397       .  A
C1738      F1745   1.357       .  S
C1739      C1740   1.404       .  A
C1739      H1744   1.083       .  S
C1741      F1742   1.357       .  S
C1746      C1747   1.405       .  A
C1746      C1751   1.398       .  A
C1746      H1753   1.083       .  S
C1748      C1749   1.397       .  A
C1748      F1755   1.357       .  S
C1749      C1750   1.405       .  A
C1749      H1754   1.083       .  S
C1751      F1752   1.357       .  S
C1756      C1761   1.398       .  A
C1756      H1763   1.083       .  S
C1757      C1758   1.408       .  A
C1758      C1759   1.397       .  A
C1758      F1765   1.357       .  S
C1759      C1760   1.404       .  A
C1759      H1764   1.083       .  S
C1761      F1762   1.357       .  S
C1766      C1771   1.399       .  A
C1766      H1773   1.083       .  S
C1767      C1768   1.408       .  A
C1768      C1769   1.396       .  A
C1768      F1775   1.357       .  S
C1769      H1774   1.083       .  S
C1770      C1771   1.408       .  A
C1771      F1772   1.357       .  S
C1776      C1781   1.397       .  A
C1776      H1783   1.083       .  S
C1777      C1778   1.409       .  A
C1778      C1779   1.399       .  A
C1778      F1785   1.357       .  S
C1779      C1780   1.405       .  A
C1779      H1784   1.083       .  S
C1781      F1782   1.357       .  S
N1786      N1787   1.319       .  A
N1786     Mn1815   2.196       .  S
N1788      N1789   1.320       .  A
N1788     Mn1804   2.202       .  S
N1790      N1791   1.320       .  A
N1790     Mn1815   2.199       .  S
N1791      C1795   1.354   1_565  A
N1792      N1793   1.319       .  A
N1792     Mn1804   2.198       .  S
N1793      C1794   1.353       .  A
C1794      C1982   1.478       .  S
C1795      C1972   1.480       .  S
N1796      N1797   1.320       .  A
N1796     Mn1826   2.199       .  S
N1797      C1805   1.354       .  A
N1798      N1799   1.320       .  A
N1798     Mn1804   2.200       .  S
N1799      C1806   1.353       .  A
N1800      N1801   1.321       .  A
N1800     Mn1826   2.206       .  S
N1802      N1803   1.320       .  A
N1802     Mn1804   2.200       .  S
Mn1804    Cl1828   2.544       .  S
C1805      C2002   1.480       .  S
C1806      C2032   1.482       .  S
N1807      N1808   1.320       .  A
N1807     Mn1815   2.197       .  S
N1809      N1810   1.320       .  A
N1809     Mn1827   2.200       .  S
N1811      N1812   1.319       .  A
N1811     Mn1815   2.198       .  S
N1812      C1817   1.353       .  A
N1813      N1814   1.320       .  A
N1813     Mn1827   2.201       .  S
N1814      C1816   1.354       .  A
C1816      C2015   1.480       .  S
C1817      C2022   1.478       .  S
N1818      N1819   1.320       .  A
N1818     Mn1826   2.202       .  S
N1819      C1829   1.354       .  A
N1820      N1821   1.319       .  A
N1820     Mn1827   2.200       .  S
N1821      C1830   1.353   1_565  A
N1822      N1823   1.321       .  A
N1822     Mn1826   2.206       .  S
N1824      N1825   1.320       .  A
N1824     Mn1827   2.198       .  S
C1829      C1995   1.480       .  S
C1830      C1962   1.482       .  S
N1831      N1832   1.319       .  A
N1831     Mn1860   2.199       .  S
N1833      N1834   1.320       .  A
N1833     Mn1849   2.203       .  S
N1835      N1836   1.320       .  A
N1835     Mn1860   2.195       .  S
N1836      C1840   1.352       .  A
N1837      N1838   1.320       .  A
N1837     Mn1849   2.198       .  S
N1838      C1839   1.354       .  A
C1839      C2035   1.481       .  S
C1840      C2025   1.478       .  S
N1841      N1842   1.320       .  A
N1841     Mn1871   2.201       .  S
N1842      C1850   1.354       .  A
N1843      N1844   1.320       .  A
N1843     Mn1849   2.200       .  S
N1845      N1846   1.320       .  A
N1845     Mn1871   2.202       .  S
N1846      C1851   1.354       .  A
N1847      N1848   1.318       .  A
N1847     Mn1849   2.196       .  S
C1850      C1942   1.478       .  S
C1851      C1952   1.481       .  S
N1852      N1853   1.318       .  A
N1852     Mn1860   2.194       .  S
N1854      N1855   1.318       .  A
N1854     Mn1872   2.195       .  S
N1855      C1862   1.353       .  A
N1856      N1857   1.319       .  A
N1856     Mn1860   2.193       .  S
N1858      N1859   1.320       .  A
N1858     Mn1872   2.200       .  S
N1859      C1861   1.354       .  A
C1861      C1925   1.477       .  S
C1862      C1932   1.475       .  S
N1863      N1864   1.319       .  A
N1863     Mn1871   2.201       .  S
N1864      C1874   1.354       .  A
N1865      N1866   1.319       .  A
N1865     Mn1872   2.197       .  S
N1866      C1875   1.353       .  A
N1867      N1868   1.320       .  A
N1867     Mn1871   2.205       .  S
N1869      N1870   1.320       .  A
N1869     Mn1872   2.200       .  S
Mn1872    Cl1873   2.547       .  S
C1874      C2005   1.481       .  S
C1875      C2012   1.480       .  S
N1876      N1877   1.319       .  A
N1876     Mn1905   2.197       .  S
N1877      C1884   1.353       .  A
N1878      N1879   1.319       .  A
N1878     Mn1894   2.199       .  S
N1880      N1881   1.319       .  A
N1880     Mn1905   2.197       .  S
N1881      C1885   1.353       .  A
N1882      N1883   1.319       .  A
N1882     Mn1894   2.197       .  S
C1884      C1922   1.477       .  S
C1885      C1945   1.478       .  S
N1886      N1887   1.319       .  A
N1886     Mn1916   2.195       .  S
N1887      C1895   1.353       .  A
N1888      N1889   1.320       .  A
N1888     Mn1894   2.198       .  S
N1889      C1896   1.353   1_565  A
N1890      N1891   1.320       .  A
N1890     Mn1916   2.201       .  S
N1892      N1893   1.319       .  A
N1892     Mn1894   2.200       .  S
C1895      C1985   1.477       .  S
C1896      C1992   1.480       .  S
N1897      N1898   1.320       .  A
N1897     Mn1905   2.201       .  S
N1899      N1900   1.321       .  A
N1899     Mn1917   2.203       .  S
N1901      N1902   1.320       .  A
N1901     Mn1905   2.201       .  S
N1902      C1907   1.354   1_565  A
N1903      N1904   1.319       .  A
N1903     Mn1917   2.197       .  S
N1904      C1906   1.353       .  A
Mn1905    Cl1918   2.544   1_565  S
C1906      C1975   1.479       .  S
C1907      C1965   1.482       .  S
N1908      N1909   1.320       .  A
N1908     Mn1916   2.199       .  S
N1910      N1911   1.321       .  A
N1910     Mn1917   2.204       .  S
N1911      C1920   1.355       .  A
N1912      N1913   1.320       .  A
N1912     Mn1916   2.199       .  S
N1914      N1915   1.318       .  A
N1914     Mn1917   2.192       .  S
N1915      C1919   1.351       .  A
C1919      C1935   1.476       .  S
C1920      C1955   1.482       .  S
C1921      C1926   1.396       .  A
C1921      H1928   1.083       .  S
C1922      C1923   1.408       .  A
C1923      C1924   1.397       .  A
C1923      F1930   1.357       .  S
C1924      C1925   1.404       .  A
C1924      H1929   1.083       .  S
C1926      F1927   1.357       .  S
C1931      C1932   1.403       .  A
C1931      C1936   1.394       .  A
C1931      H1938   1.083       .  S
C1933      C1934   1.398       .  A
C1933      F1940   1.357       .  S
C1934      H1939   1.084       .  S
C1935      C1936   1.408       .  A
C1936      F1937   1.357       .  S
C1941      C1942   1.404       .  A
C1941      C1946   1.398       .  A
C1941      H1948   1.083       .  S
C1942      C1943   1.408   1_556  A
C1943      C1944   1.396       .  A
C1943      F1950   1.357       .  S
C1944      C1945   1.404   1_554  A
C1944      H1949   1.083       .  S
C1945      C1946   1.408       .  A
C1946      F1947   1.357       .  S
C1951      C1952   1.405   1_554  A
C1951      C1956   1.398       .  A
C1952      C1953   1.408       .  A
C1953      C1954   1.398       .  A
C1953      F1960   1.357       .  S
C1954      C1955   1.405       .  A
C1954      H1959   1.083       .  S
C1955      C1956   1.409   1_556  A
C1956      F1957   1.357       .  S
C1961      C1966   1.399       .  A
C1961      H1968   1.083       .  S
C1962      C1963   1.408   1_545  A
C1963      C1964   1.398       .  A
C1963      F1970   1.357       .  S
C1964      C1965   1.405   1_565  A
C1964      H1969   1.083       .  S
C1966      F1967   1.357       .  S
C1971      C1972   1.405   1_565  A
C1971      C1976   1.398       .  A
C1971      H1978   1.083       .  S
C1973      C1974   1.397       .  A
C1973      F1980   1.357       .  S
C1974      C1975   1.404       .  A
C1974      H1979   1.083       .  S
C1976      F1977   1.357       .  S
C1981      C1982   1.404       .  A
C1981      C1986   1.397       .  A
C1981      H1988   1.083       .  S
C1983      C1984   1.396       .  A
C1983      F1990   1.357       .  S
C1984      H1989   1.083       .  S
C1985      C1986   1.408       .  A
C1986      F1987   1.357       .  S
C1991      C1992   1.405   1_565  A
C1991      C1996   1.398       .  A
C1991      H1998   1.083       .  S
C1993      C1994   1.397       .  A
C1993      F2000   1.357       .  S
C1994      C1995   1.404       .  A
C1994      H1999   1.083       .  S
C1996      F1997   1.357       .  S
C2001      C2002   1.405       .  A
C2001      C2006   1.398       .  A
C2001      H2008   1.083       .  S
C2003      C2004   1.397       .  A
C2003      F2010   1.357       .  S
C2004      C2005   1.405       .  A
C2004      H2009   1.083       .  S
C2006      F2007   1.357       .  S
C2011      C2016   1.398       .  A
C2011      H2018   1.083       .  S
C2012      C2013   1.408       .  A
C2013      C2014   1.397       .  A
C2013      F2020   1.357       .  S
C2014      C2015   1.404       .  A
C2014      H2019   1.083       .  S
C2016      F2017   1.357       .  S
C2021      C2026   1.399       .  A
C2021      H2028   1.083       .  S
C2022      C2023   1.408       .  A
C2023      C2024   1.396       .  A
C2023      F2030   1.357       .  S
C2024      H2029   1.083       .  S
C2025      C2026   1.408       .  A
C2026      F2027   1.357       .  S
C2031      C2036   1.397       .  A
C2031      H2038   1.083       .  S
C2032      C2033   1.409       .  A
C2033      C2034   1.399       .  A
C2033      F2040   1.357       .  S
C2034      C2035   1.405       .  A
C2034      H2039   1.083       .  S
C2036      F2037   1.357       .  S
