geometry optimzed in LAMMPS
_audit_creation_date              2020-11-30 
_audit_creation_method            'lammps2cif' 
_symmetry_space_group_name_H-M    'P1' 
_symmetry_Int_Tables_number       1 
_symmetry_cell_setting            triclinic 
loop_ 
_symmetry_equiv_pos_as_xyz 
  x,y,z 
_cell_length_a                    39.026473125898306 
_cell_length_b                    39.02713459518944 
_cell_length_c                    39.02623672467257 
_cell_angle_alpha                 89.99937509357306 
_cell_angle_beta                  90.00475728568908 
_cell_angle_gamma                 89.99936020949714 
loop_ 
_atom_site_label 
_atom_site_type_symbol 
_atom_site_fract_x 
_atom_site_fract_y 
_atom_site_fract_z 
_atom_site_charge 
Fe1        Fe  0.08886787  0.29479874  0.08907320     1.65780
Fe2        Fe  0.08876252  0.20564258  0.08916711     1.73250
Fe3        Fe  0.14180978  0.25021285  0.14207688     1.54410
O4          O  0.17061780  0.28712904  0.11867258    -0.83050
O5          O  0.08359826  0.18303095  0.13730732    -0.81350
O6          O  0.13699882  0.31743429  0.08393135    -0.85550
O7          O  0.08414234  0.31768665  0.13702311    -0.80410
O8          O  0.17089615  0.21378291  0.11797635    -0.82180
O9          O  0.03845388  0.22161761  0.09212708    -0.84930
C10         C  0.09856931  0.31226698  0.16568101     0.95840
C11         C  0.16544449  0.31232586  0.09893820     1.03280
O12         O  0.10640960  0.25021869  0.10670438    -1.13910
O13         O  0.09217728  0.22159316  0.03875989    -0.76340
O14         O  0.09185663  0.27882826  0.03875897    -0.79830
O15         O  0.11773636  0.28664226  0.17118715    -0.80520
C16         C  0.09259032  0.25023584  0.02329050     0.94740
O17         O  0.03845254  0.27884890  0.09245725    -0.78470
O18         O  0.13668940  0.18271940  0.08444894    -0.83670
C19         C  0.09863987  0.18812386  0.16573762     0.97370
C20         C  0.16536104  0.18814135  0.09884126     1.03280
O21         O  0.11841335  0.21329507  0.17088826    -0.79310
C22         C  0.02298272  0.25020646  0.09285792     1.01580
Fe23       Fe  0.41941514  0.20560537  0.08910302     1.65780
Fe24       Fe  0.41955594  0.29474955  0.08923374     1.73250
Fe25       Fe  0.36651166  0.25018078  0.14214481     1.54420
O26         O  0.33782886  0.21306508  0.11893052    -0.83050
O27         O  0.42495331  0.31727281  0.13739868    -0.81350
O28         O  0.37125298  0.18306672  0.08375567    -0.85550
O29         O  0.42393253  0.18263931  0.13702636    -0.80410
O30         O  0.33727448  0.28639361  0.11786384    -0.82180
O31         O  0.46985702  0.27870879  0.09196607    -0.84930
C32         C  0.40973229  0.18818866  0.16576951     0.95840
C33         C  0.34289344  0.18803307  0.09896941     1.03280
O34         O  0.40189824  0.25017808  0.10675858    -1.13910
O35         O  0.41592948  0.27887856  0.03881014    -0.76340
O36         O  0.41663460  0.22164754  0.03879696    -0.79830
O37         O  0.39078888  0.21396102  0.17138185    -0.80520
C38         C  0.41572221  0.25023779  0.02333206     0.94740
O39         O  0.46984172  0.22148029  0.09268218    -0.78470
O40         O  0.37164430  0.31773123  0.08475317    -0.83670
C41         C  0.40972145  0.31232232  0.16575061     0.97370
C42         C  0.34289585  0.31217334  0.09893575     1.03280
O43         O  0.38973776  0.28730455  0.17080900    -0.79310
C44         C  0.48532057  0.25012037  0.09287550     1.01580
Fe45       Fe  0.20961591  0.41557476  0.08916066     1.65780
Fe46       Fe  0.29877102  0.41547367  0.08907790     1.73250
Fe47       Fe  0.25418818  0.36261238  0.14215113     1.54410
O48         O  0.21716357  0.38595502  0.17084550    -0.83050
O49         O  0.32133867  0.36732224  0.08385039    -0.81350
O50         O  0.18700746  0.42087709  0.13728751    -0.85550
O51         O  0.18670227  0.36763565  0.08457776    -0.80410
O52         O  0.29050098  0.38682910  0.17130833    -0.82180
O53         O  0.28278140  0.41257269  0.03876794    -0.84930
C54         C  0.19219120  0.33894338  0.09890573     0.95840
C55         C  0.19204446  0.40579286  0.16570249     1.03280
O56         O  0.25419206  0.39795650  0.10672659    -1.13910
O57         O  0.28284027  0.46588621  0.09254377    -0.76340
O58         O  0.22560518  0.46587857  0.09200356    -0.79830
O59         O  0.21787677  0.33340538  0.11798645    -0.80520
C60         C  0.25419088  0.48134970  0.09283321     0.94740
O61         O  0.22555034  0.41204521  0.03875427    -0.78470
O62         O  0.32172120  0.42011270  0.13700505    -0.83670
C63         C  0.31630610  0.33894130  0.09900134     0.97360
C64         C  0.31622581  0.40584045  0.16572274     1.03280
O65         O  0.29121341  0.33385449  0.11888335    -0.79310
C66         C  0.25419698  0.41173795  0.02329132     1.01580
Fe67       Fe  0.20957395  0.08489624  0.08903526     1.65780
Fe68       Fe  0.29873199  0.08475576  0.08918492     1.73250
Fe69       Fe  0.25415461  0.13779278  0.14207258     1.54410
O70         O  0.21695062  0.16640064  0.11892494    -0.83050
O71         O  0.32124464  0.07929776  0.13734910    -0.81350
O72         O  0.18703970  0.13305318  0.08360593    -0.85550
O73         O  0.18658553  0.08044492  0.13694946    -0.80410
O74         O  0.29028932  0.16708156  0.11772196    -0.82180
O75         O  0.28267905  0.03446739  0.09187681    -0.84930
C76         C  0.19219141  0.09457544  0.16571687     0.95840
C77         C  0.19195820  0.16137477  0.09890204     1.03280
O78         O  0.25415287  0.10241087  0.10669399    -1.13910
O79         O  0.28286194  0.08842566  0.03876989    -0.76340
O80         O  0.22562971  0.08762243  0.03874685    -0.79830
O81         O  0.21801984  0.11343928  0.17135391    -0.80520
C82         C  0.25421904  0.08858589  0.02329185     0.94740
O83         O  0.22544930  0.03447811  0.09267704    -0.78470
O84         O  0.32173461  0.13266429  0.08475908    -0.83670
C85         C  0.31633325  0.09460000  0.16566798     0.97360
C86         C  0.31612576  0.16143721  0.09887404     1.03280
O87         O  0.29135790  0.11464497  0.17068428    -0.79310
C88         C  0.25409383  0.01900518  0.09283494     1.01580
Fe89       Fe  0.29875358  0.08486820  0.41989043     1.65780
Fe90       Fe  0.20959615  0.08474535  0.41974499     1.73250
Fe91       Fe  0.25418264  0.13781003  0.36688684     1.54410
O92         O  0.29130862  0.16645163  0.39012307    -0.83050
O93         O  0.18705609  0.07941608  0.37158257    -0.81350
O94         O  0.32133983  0.13299831  0.42524150    -0.85550
O95         O  0.32169243  0.08032751  0.37195804    -0.80410
O96         O  0.21797283  0.16703210  0.39119023    -0.82180
O97         O  0.22562029  0.03444651  0.41694227    -0.84930
C98         C  0.31614167  0.09455176  0.34322459     0.95840
C99         C  0.31636441  0.16136531  0.41005224     1.03280
O100        O  0.25417715  0.10240231  0.40224212    -1.13910
O101        O  0.22549151  0.08831177  0.47016103    -0.76340
O102        O  0.28272638  0.08768959  0.47018181    -0.79830
O103        O  0.29039073  0.11353445  0.33763797    -0.80520
C104        C  0.25413485  0.08857297  0.48563757     0.94740
O105        O  0.28285071  0.03445866  0.41633500    -0.78470
O106        O  0.18662168  0.13265970  0.42428613    -0.83670
C107        C  0.19202132  0.09466603  0.34324331     0.97370
C108        C  0.19218602  0.16141122  0.41011092     1.03280
O109        O  0.21705575  0.11462980  0.33820087    -0.79310
C110        C  0.25421003  0.01898440  0.41607785     1.01580
Fe111      Fe  0.41944516  0.08477562  0.29906290     1.65780
Fe112      Fe  0.41955460  0.08487376  0.20990871     1.73250
Fe113      Fe  0.36649453  0.13776720  0.25447721     1.54420
O114        O  0.33775073  0.11442787  0.29147687    -0.83050
O115        O  0.42476959  0.13301900  0.18731684    -0.81350
O116        O  0.37130546  0.07952312  0.32166014    -0.85550
O117        O  0.42406726  0.13271632  0.32197304    -0.80410
O118        O  0.33735933  0.11358047  0.21813305    -0.82180
O119        O  0.46986272  0.08779672  0.22590944    -0.84930
C120        C  0.40973465  0.16140849  0.31649295     0.95840
C121        C  0.34288916  0.09460572  0.31660913     1.03280
O122        O  0.40189965  0.10240130  0.25448295    -1.13910
O123        O  0.41610549  0.03446273  0.22583871    -0.76340
O124        O  0.41657418  0.03446343  0.28307342    -0.79830
O125        O  0.39064268  0.16694617  0.29081701    -0.80520
C126        C  0.41578595  0.01899390  0.25448308     0.94740
O127        O  0.46985894  0.08827393  0.28314181    -0.78470
O128        O  0.37162698  0.08020557  0.18696988    -0.83670
C129        C  0.40966103  0.16142060  0.19236529     0.97370
C130        C  0.34292617  0.09452182  0.19244047     1.03280
O131        O  0.38981046  0.16652994  0.21747877    -0.79310
C132        C  0.48533126  0.08861300  0.25450071     1.01580
Fe133      Fe  0.08889663  0.08485435  0.20989722     1.65780
Fe134      Fe  0.08876386  0.08500148  0.29904336     1.73250
Fe135      Fe  0.14185928  0.13785165  0.25446555     1.54410
O136        O  0.17053700  0.11457877  0.21738586    -0.83050
O137        O  0.08345193  0.13317513  0.32156005    -0.81350
O138        O  0.13703851  0.07953224  0.18731934    -0.85550
O139        O  0.08434154  0.13279133  0.18696542    -0.80410
O140        O  0.17105150  0.11356716  0.29071172    -0.82180
O141        O  0.03845944  0.08780111  0.28301271    -0.84930
C142        C  0.09860273  0.16151227  0.19249023     0.95840
C143        C  0.16543073  0.09467455  0.19231751     1.03280
O144        O  0.10643327  0.10250316  0.25446838    -1.13910
O145        O  0.09232625  0.03457600  0.28316972    -0.76340
O146        O  0.09172704  0.03455179  0.22593470    -0.79830
O147        O  0.11762549  0.16708452  0.21821358    -0.80520
C148        C  0.09260130  0.01909393  0.25453110     0.94740
O149        O  0.03847331  0.08839257  0.22578369    -0.78470
O150        O  0.13667226  0.08044413  0.32202306    -0.83670
C151        C  0.09868802  0.16152360  0.31658776     0.97370
C152        C  0.16542604  0.09462059  0.31647681     1.03280
O153        O  0.11865044  0.16657280  0.29155436    -0.79310
C154        C  0.02299441  0.08864697  0.25442137     1.01580
Fe155      Fe  0.08894185  0.20563536  0.41988777     1.65780
Fe156      Fe  0.08874852  0.29478408  0.41971374     1.73250
Fe157      Fe  0.14185403  0.25021749  0.36687415     1.54410
O158        O  0.17044686  0.21298526  0.38998938    -0.83050
O159        O  0.08328133  0.31726765  0.37153250    -0.81350
O160        O  0.13710321  0.18311314  0.42533252    -0.85550
O161        O  0.08451039  0.18266423  0.37196443    -0.80410
O162        O  0.17112995  0.28630510  0.39130508    -0.82180
O163        O  0.03846458  0.27869173  0.41703624    -0.84930
C164        C  0.09861837  0.18828429  0.34318919     0.95840
C165        C  0.16542286  0.18801180  0.41002832     1.03280
O166        O  0.10644191  0.25021216  0.40222612    -1.13910
O167        O  0.09243866  0.27894651  0.47014212    -0.76340
O168        O  0.09164774  0.22171388  0.47017987    -0.79830
O169        O  0.11748161  0.21411557  0.33754967    -0.80520
C170        C  0.09260462  0.25031011  0.48563020     0.94740
O171        O  0.03851393  0.22146559  0.41623553    -0.78470
O172        O  0.13663819  0.31782010  0.42412824    -0.83670
C173        C  0.09866935  0.31240307  0.34325075     0.97370
C174        C  0.16544135  0.31217807  0.41009134     1.03280
O175        O  0.11877026  0.28746662  0.33827289    -0.79310
C176        C  0.02301985  0.25009552  0.41608411     1.01580
Fe177      Fe  0.08880225  0.41554511  0.20989477     1.65780
Fe178      Fe  0.08897573  0.41565281  0.29905155     1.73250
Fe179      Fe  0.14182121  0.36258892  0.25444562     1.54410
O180        O  0.11849249  0.33389840  0.21739931    -0.83050
O181        O  0.13714746  0.42089107  0.32159385    -0.81350
O182        O  0.08350604  0.36741718  0.18728008    -0.85550
O183        O  0.13672875  0.42015356  0.18695323    -0.80410
O184        O  0.11761105  0.33341570  0.29075356    -0.82180
O185        O  0.09183971  0.46596441  0.28304845    -0.84930
C186        C  0.16543416  0.40585130  0.19245082     0.95840
C187        C  0.09862703  0.33901870  0.19229626     1.03280
O188        O  0.10646555  0.39800101  0.25446425    -1.13910
O189        O  0.03855143  0.41215989  0.28316430    -0.76340
O190        O  0.03851375  0.41266287  0.22592895    -0.79830
O191        O  0.17099508  0.38679627  0.21814919    -0.80520
C192        C  0.02306546  0.41183444  0.25452746     0.94740
O193        O  0.09230535  0.46595683  0.22581625    -0.78470
O194        O  0.08435448  0.36772763  0.32199591    -0.83670
C195        C  0.16552187  0.40572017  0.31656920     0.97370
C196        C  0.09860633  0.33900338  0.31648403     1.03280
O197        O  0.17059588  0.38583270  0.29148000    -0.79310
C198        C  0.09262678  0.48143157  0.25445647     1.01580
Fe199      Fe  0.41951417  0.41558278  0.20992347     1.65780
Fe200      Fe  0.41965622  0.41543747  0.29908185     1.73250
Fe201      Fe  0.36657791  0.36258245  0.25449269     1.54420
O202        O  0.33791864  0.38582378  0.21737294    -0.83050
O203        O  0.42502202  0.36726706  0.32160402    -0.81350
O204        O  0.37136981  0.42094027  0.18734370    -0.85550
O205        O  0.42404659  0.36765293  0.18696974    -0.80410
O206        O  0.33736419  0.38688228  0.29070431    -0.82180
O207        O  0.46995318  0.41267621  0.28304705    -0.84930
C208        C  0.40980952  0.33892501  0.19251319     0.95840
C209        C  0.34299706  0.40575801  0.19232160     1.03280
O210        O  0.40198979  0.39793415  0.25449936    -1.13910
O211        O  0.41605417  0.46585705  0.28320578    -0.76340
O212        O  0.41671174  0.46587743  0.22597056    -0.79830
O213        O  0.39083788  0.33333879  0.21826993    -0.80520
C214        C  0.41580990  0.48133519  0.25456452     0.94740
O215        O  0.46992740  0.41201660  0.22581692    -0.78470
O216        O  0.37174925  0.41995436  0.32206918    -0.83670
C217        C  0.40975546  0.33893287  0.31664999     0.97360
C218        C  0.34299312  0.40579082  0.31649757     1.03280
O219        O  0.38977148  0.33389851  0.29162519    -0.79310
C220        C  0.48540888  0.41179844  0.25445531     1.01580
Fe221      Fe  0.20964225  0.41542489  0.41987022     1.65780
Fe222      Fe  0.29878749  0.41558101  0.41972979     1.73250
Fe223      Fe  0.25421766  0.36251573  0.36684411     1.54420
O224        O  0.21700150  0.33391691  0.38995958    -0.83050
O225        O  0.32128293  0.42104761  0.37156387    -0.81350
O226        O  0.18711983  0.36726825  0.42529110    -0.85550
O227        O  0.18667450  0.41987476  0.37194842    -0.80410
O228        O  0.29030888  0.33321559  0.39124872    -0.82180
O229        O  0.28272108  0.46587239  0.41704596    -0.84930
C230        C  0.19228562  0.40576879  0.34317105     0.95840
C231        C  0.19202947  0.33894470  0.40999626     1.03280
O232        O  0.25421590  0.39791220  0.40221667    -1.13910
O233        O  0.28293108  0.41189410  0.47015446    -0.76340
O234        O  0.22569922  0.41270221  0.47016703    -0.79830
O235        O  0.21810827  0.38689499  0.33752942    -0.80650
C236        C  0.25428813  0.41173221  0.48563039     0.94740
O237        O  0.22549384  0.46584566  0.41622967    -0.78470
O238        O  0.32179669  0.36767536  0.42413421    -0.83670
C239        C  0.31639958  0.40570381  0.34326116     0.97360
C240        C  0.31616127  0.33888092  0.41007101     1.03280
O241        O  0.29145151  0.38562481  0.33825510    -0.79310
C242        C  0.25413095  0.48132772  0.41607748     1.01580
Fe243      Fe  0.41947578  0.29472991  0.41988271     1.65780
Fe244      Fe  0.41959409  0.20557730  0.41978298     1.73250
Fe245      Fe  0.36653835  0.25015031  0.36687753     1.54420
O246        O  0.33776666  0.28712238  0.39022098    -0.83050
O247        O  0.42481944  0.18298243  0.37163989    -0.81350
O248        O  0.37134560  0.31735385  0.42505635    -0.85550
O249        O  0.42417342  0.31761900  0.37193549    -0.80410
O250        O  0.33740825  0.21380418  0.39104744    -0.82180
O251        O  0.46990091  0.22156910  0.41687294    -0.84930
C252        C  0.40980196  0.31217118  0.34325610     0.95840
C253        C  0.34291689  0.31227689  0.41000847     1.03280
O254        O  0.40194097  0.25015227  0.40224790    -1.13910
O255        O  0.41612282  0.22151214  0.47019753    -0.76340
O256        O  0.41651850  0.27874704  0.47019709    -0.79830
O257        O  0.39067560  0.28651777  0.33772446    -0.80520
C258        C  0.41574355  0.25015582  0.48566783     0.94740
O259        O  0.46988485  0.27879891  0.41646660    -0.78470
O260        O  0.37166885  0.18264179  0.42443390    -0.83670
C261        C  0.40970355  0.18802545  0.34324053     0.97370
C262        C  0.34296950  0.18811822  0.41011510     1.03280
O263        O  0.38986881  0.21315437  0.33811888    -0.79310
C264        C  0.48536177  0.25016212  0.41610270     1.01580
Fe265      Fe  0.08886786  0.29479873  0.58907320     1.65780
Fe266      Fe  0.08876252  0.20564257  0.58916712     1.73250
Fe267      Fe  0.14180977  0.25021285  0.64207689     1.54410
O268        O  0.17061781  0.28712900  0.61867255    -0.83050
O269        O  0.08359829  0.18303093  0.63730732    -0.81350
O270        O  0.13699880  0.31743430  0.58393139    -0.85550
O271        O  0.08414229  0.31768663  0.63702312    -0.80410
O272        O  0.17089613  0.21378288  0.61797639    -0.82180
O273        O  0.03845388  0.22161758  0.59212712    -0.84930
C274        C  0.09856930  0.31226699  0.66568100     0.95840
C275        C  0.16544449  0.31232585  0.59893820     1.03280
O276        O  0.10640960  0.25021868  0.60670439    -1.13910
O277        O  0.09217725  0.22159316  0.53875990    -0.76340
O278        O  0.09185665  0.27882825  0.53875898    -0.79830
O279        O  0.11773638  0.28664230  0.67118713    -0.80520
C280        C  0.09259032  0.25023583  0.52329051     0.94740
O281        O  0.03845253  0.27884887  0.59245723    -0.78470
O282        O  0.13668940  0.18271940  0.58444892    -0.83670
C283        C  0.09863988  0.18812387  0.66573764     0.97370
C284        C  0.16536103  0.18814134  0.59884127     1.03280
O285        O  0.11841332  0.21329510  0.67088829    -0.79310
C286        C  0.02298272  0.25020643  0.59285793     1.01580
Fe287      Fe  0.41941513  0.20560537  0.58910302     1.65780
Fe288      Fe  0.41955594  0.29474954  0.58923375     1.73250
Fe289      Fe  0.36651166  0.25018078  0.64214482     1.54420
O290        O  0.33782887  0.21306505  0.61893056    -0.83050
O291        O  0.42495332  0.31727280  0.63739869    -0.81350
O292        O  0.37125296  0.18306673  0.58375566    -0.85550
O293        O  0.42393250  0.18263930  0.63702636    -0.80410
O294        O  0.33727447  0.28639358  0.61786383    -0.82180
O295        O  0.46985701  0.27870878  0.59196606    -0.84930
C296        C  0.40973229  0.18818867  0.66576952     0.95840
C297        C  0.34289344  0.18803306  0.59896942     1.03280
O298        O  0.40189823  0.25017807  0.60675859    -1.13910
O299        O  0.41592946  0.27887855  0.53881014    -0.76340
O300        O  0.41663461  0.22164754  0.53879696    -0.79830
O301        O  0.39078891  0.21396104  0.67138187    -0.80520
C302        C  0.41572221  0.25023778  0.52333206     0.94740
O303        O  0.46984171  0.22148028  0.59268220    -0.78470
O304        O  0.37164430  0.31773123  0.58475319    -0.83670
C305        C  0.40972145  0.31232233  0.66575061     0.97370
C306        C  0.34289584  0.31217332  0.59893576     1.03280
O307        O  0.38973774  0.28730457  0.67080900    -0.79310
C308        C  0.48532057  0.25012036  0.59287551     1.01580
Fe309      Fe  0.20961591  0.41557474  0.58916066     1.65780
Fe310      Fe  0.29877102  0.41547367  0.58907790     1.73250
Fe311      Fe  0.25418818  0.36261237  0.64215114     1.54410
O312        O  0.21716361  0.38595504  0.67084554    -0.83050
O313        O  0.32133869  0.36732224  0.58385044    -0.81350
O314        O  0.18700745  0.42087703  0.63728751    -0.85550
O315        O  0.18670229  0.36763562  0.58457773    -0.80410
O316        O  0.29050103  0.38682906  0.67130830    -0.82180
O317        O  0.28278141  0.41257265  0.53876795    -0.84930
C318        C  0.19219119  0.33894337  0.59890574     0.95840
C319        C  0.19204448  0.40579285  0.66570250     1.03280
O320        O  0.25419206  0.39795649  0.60672659    -1.13910
O321        O  0.28284024  0.46588620  0.59254373    -0.76340
O322        O  0.22560516  0.46587856  0.59200359    -0.79830
O323        O  0.21787673  0.33340539  0.61798649    -0.80520
C324        C  0.25419085  0.48134970  0.59283320     0.94740
O325        O  0.22555035  0.41204523  0.53875427    -0.78470
O326        O  0.32172119  0.42011275  0.63700505    -0.83670
C327        C  0.31630609  0.33894129  0.59900134     0.97360
C328        C  0.31622583  0.40584045  0.66572273     1.03280
O329        O  0.29121337  0.33385445  0.61888331    -0.79310
C330        C  0.25419699  0.41173794  0.52329132     1.01580
Fe331      Fe  0.20957394  0.08489623  0.58903526     1.65780
Fe332      Fe  0.29873198  0.08475575  0.58918492     1.73250
Fe333      Fe  0.25415461  0.13779277  0.64207258     1.54410
O334        O  0.21695061  0.16640063  0.61892495    -0.83050
O335        O  0.32124464  0.07929776  0.63734909    -0.81350
O336        O  0.18703970  0.13305318  0.58360593    -0.85550
O337        O  0.18658552  0.08044491  0.63694946    -0.80410
O338        O  0.29028932  0.16708155  0.61772198    -0.82180
O339        O  0.28267904  0.03446739  0.59187681    -0.84930
C340        C  0.19219140  0.09457543  0.66571687     0.95840
C341        C  0.19195820  0.16137476  0.59890205     1.03280
O342        O  0.25415287  0.10241086  0.60669399    -1.13910
O343        O  0.28286194  0.08842565  0.53876989    -0.76340
O344        O  0.22562971  0.08762243  0.53874685    -0.79830
O345        O  0.21801983  0.11343926  0.67135391    -0.80520
C346        C  0.25421904  0.08858588  0.52329185     0.94740
O347        O  0.22544929  0.03447810  0.59267703    -0.78470
O348        O  0.32173460  0.13266429  0.58475907    -0.83670
C349        C  0.31633325  0.09459999  0.66566798     0.97360
C350        C  0.31612576  0.16143720  0.59887405     1.03280
O351        O  0.29135789  0.11464495  0.67068429    -0.79310
C352        C  0.25409382  0.01900517  0.59283493     1.01580
Fe353      Fe  0.29875358  0.08486820  0.91989043     1.65780
Fe354      Fe  0.20959615  0.08474536  0.91974500     1.73250
Fe355      Fe  0.25418264  0.13781004  0.86688685     1.54410
O356        O  0.29130859  0.16645165  0.89012309    -0.83050
O357        O  0.18705608  0.07941610  0.87158258    -0.81350
O358        O  0.32133984  0.13299830  0.92524147    -0.85550
O359        O  0.32169241  0.08032748  0.87195803    -0.80410
O360        O  0.21797280  0.16703209  0.89119021    -0.82180
O361        O  0.22562028  0.03444651  0.91694226    -0.84930
C362        C  0.31614167  0.09455176  0.84322460     0.95840
C363        C  0.31636441  0.16136532  0.91005223     1.03280
O364        O  0.25417715  0.10240232  0.90224212    -1.13910
O365        O  0.22549152  0.08831176  0.97016103    -0.76340
O366        O  0.28272638  0.08768961  0.97018181    -0.79830
O367        O  0.29039075  0.11353448  0.83763798    -0.80520
C368        C  0.25413486  0.08857297  0.98563757     0.94740
O369        O  0.28285070  0.03445866  0.91633502    -0.78470
O370        O  0.18662168  0.13265971  0.92428616    -0.83670
C371        C  0.19202133  0.09466603  0.84324330     0.97370
C372        C  0.19218601  0.16141122  0.91011092     1.03280
O373        O  0.21705577  0.11462979  0.83820086    -0.79310
C374        C  0.25421002  0.01898440  0.91607785     1.01580
Fe375      Fe  0.41944516  0.08477562  0.79906291     1.65780
Fe376      Fe  0.41955460  0.08487376  0.70990871     1.73250
Fe377      Fe  0.36649453  0.13776720  0.75447721     1.54420
O378        O  0.33775073  0.11442785  0.79147687    -0.83050
O379        O  0.42476958  0.13301900  0.68731684    -0.81350
O380        O  0.37130546  0.07952313  0.82166015    -0.85550
O381        O  0.42406727  0.13271633  0.82197304    -0.80410
O382        O  0.33735933  0.11358048  0.71813304    -0.82180
O383        O  0.46986272  0.08779673  0.72590944    -0.84930
C384        C  0.40973465  0.16140849  0.81649295     0.95840
C385        C  0.34288916  0.09460572  0.81660913     1.03280
O386        O  0.40189965  0.10240130  0.75448296    -1.13910
O387        O  0.41610550  0.03446273  0.72583872    -0.76340
O388        O  0.41657417  0.03446343  0.78307343    -0.79830
O389        O  0.39064267  0.16694617  0.79081702    -0.80520
C390        C  0.41578596  0.01899391  0.75448308     0.94740
O391        O  0.46985894  0.08827393  0.78314182    -0.78470
O392        O  0.37162698  0.08020556  0.68696989    -0.83670
C393        C  0.40966103  0.16142060  0.69236530     0.97370
C394        C  0.34292617  0.09452181  0.69244047     1.03280
O395        O  0.38981046  0.16652994  0.71747878    -0.79310
C396        C  0.48533126  0.08861300  0.75450071     1.01580
Fe397      Fe  0.08889663  0.08485435  0.70989723     1.65780
Fe398      Fe  0.08876386  0.08500149  0.79904337     1.73250
Fe399      Fe  0.14185929  0.13785164  0.75446555     1.54410
O400        O  0.17053699  0.11457877  0.71738584    -0.83050
O401        O  0.08345190  0.13317514  0.82156004    -0.81350
O402        O  0.13703850  0.07953221  0.68731934    -0.85550
O403        O  0.08434157  0.13279132  0.68696542    -0.80410
O404        O  0.17105152  0.11356712  0.79071170    -0.82180
O405        O  0.03845944  0.08780109  0.78301271    -0.84930
C406        C  0.09860273  0.16151228  0.69249025     0.95840
C407        C  0.16543072  0.09467453  0.69231750     1.03280
O408        O  0.10643327  0.10250315  0.75446838    -1.13910
O409        O  0.09232628  0.03457600  0.78316973    -0.76340
O410        O  0.09172701  0.03455179  0.72593472    -0.79830
O411        O  0.11762548  0.16708453  0.71821360    -0.80520
C412        C  0.09260130  0.01909393  0.75453112     0.94740
O413        O  0.03847331  0.08839259  0.72578368    -0.78470
O414        O  0.13667225  0.08044416  0.82202308    -0.83670
C415        C  0.09868803  0.16152360  0.81658776     0.97370
C416        C  0.16542605  0.09462058  0.81647681     1.03280
O417        O  0.11865048  0.16657278  0.79155439    -0.79310
C418        C  0.02299441  0.08864698  0.75442137     1.01580
Fe419      Fe  0.08894184  0.20563537  0.91988776     1.65780
Fe420      Fe  0.08874852  0.29478408  0.91971373     1.73250
Fe421      Fe  0.14185403  0.25021749  0.86687415     1.54410
O422        O  0.17044686  0.21298526  0.88998940    -0.83050
O423        O  0.08328134  0.31726765  0.87153249    -0.81350
O424        O  0.13710319  0.18311314  0.92533251    -0.85550
O425        O  0.08451037  0.18266424  0.87196442    -0.80410
O426        O  0.17112994  0.28630510  0.89130507    -0.82180
O427        O  0.03846457  0.27869174  0.91703622    -0.84930
C428        C  0.09861836  0.18828428  0.84318919     0.95840
C429        C  0.16542285  0.18801180  0.91002832     1.03280
O430        O  0.10644190  0.25021217  0.90222611    -1.13910
O431        O  0.09243864  0.27894652  0.97014211    -0.76340
O432        O  0.09164774  0.22171388  0.97017986    -0.79830
O433        O  0.11748162  0.21411556  0.83754967    -0.80520
C434        C  0.09260461  0.25031012  0.98563020     0.94740
O435        O  0.03851392  0.22146560  0.91623553    -0.78470
O436        O  0.13663819  0.31782011  0.92412823    -0.83670
C437        C  0.09866936  0.31240306  0.84325073     0.97370
C438        C  0.16544135  0.31217808  0.91009133     1.03280
O439        O  0.11877027  0.28746661  0.83827288    -0.79310
C440        C  0.02301984  0.25009553  0.91608410     1.01580
Fe441      Fe  0.08880226  0.41554511  0.70989477     1.65780
Fe442      Fe  0.08897574  0.41565283  0.79905154     1.73250
Fe443      Fe  0.14182122  0.36258893  0.75444562     1.54410
O444        O  0.11849254  0.33389844  0.71739926    -0.83050
O445        O  0.13714748  0.42089114  0.82159383    -0.81350
O446        O  0.08350599  0.36741717  0.68728010    -0.85550
O447        O  0.13672874  0.42015349  0.68695320    -0.80410
O448        O  0.11761101  0.33341568  0.79075351    -0.82180
O449        O  0.09183966  0.46596442  0.78304842    -0.84930
C450        C  0.16543418  0.40585129  0.69245083     0.95840
C451        C  0.09862702  0.33901872  0.69229625     1.03280
O452        O  0.10646555  0.39800101  0.75446424    -1.13910
O453        O  0.03855144  0.41215985  0.78316431    -0.76340
O454        O  0.03851376  0.41266293  0.72592896    -0.79830
O455        O  0.17099513  0.38679632  0.71814924    -0.80520
C456        C  0.02306547  0.41183444  0.75452747     0.94740
O457        O  0.09230541  0.46595684  0.72581622    -0.78470
O458        O  0.08435454  0.36772765  0.82199593    -0.83670
C459        C  0.16552186  0.40572019  0.81656920     0.97370
C460        C  0.09860634  0.33900338  0.81648401     1.03280
O461        O  0.17059585  0.38583267  0.79148005    -0.79310
C462        C  0.09262679  0.48143158  0.75445644     1.01580
Fe463      Fe  0.41951418  0.41558279  0.70992347     1.65780
Fe464      Fe  0.41965623  0.41543747  0.79908185     1.73250
Fe465      Fe  0.36657791  0.36258245  0.75449268     1.54420
O466        O  0.33791866  0.38582378  0.71737292    -0.83050
O467        O  0.42502204  0.36726705  0.82160401    -0.81350
O468        O  0.37136982  0.42094029  0.68734370    -0.85550
O469        O  0.42404659  0.36765294  0.68696973    -0.80410
O470        O  0.33736419  0.38688229  0.79070430    -0.82180
O471        O  0.46995319  0.41267622  0.78304705    -0.84930
C472        C  0.40980953  0.33892501  0.69251319     0.95840
C473        C  0.34299707  0.40575802  0.69232160     1.03280
O474        O  0.40198980  0.39793415  0.75449936    -1.13910
O475        O  0.41605416  0.46585705  0.78320580    -0.76340
O476        O  0.41671176  0.46587743  0.72597058    -0.79830
O477        O  0.39083789  0.33333879  0.71826993    -0.80520
C478        C  0.41580990  0.48133519  0.75456453     0.94740
O479        O  0.46992741  0.41201659  0.72581692    -0.78470
O480        O  0.37174926  0.41995435  0.82206919    -0.83670
C481        C  0.40975547  0.33893287  0.81664999     0.97360
C482        C  0.34299312  0.40579082  0.81649757     1.03280
O483        O  0.38977147  0.33389852  0.79162520    -0.79310
C484        C  0.48540889  0.41179844  0.75445531     1.01580
Fe485      Fe  0.20964225  0.41542490  0.91987022     1.65780
Fe486      Fe  0.29878749  0.41558101  0.91972980     1.73250
Fe487      Fe  0.25421765  0.36251574  0.86684411     1.54420
O488        O  0.21700151  0.33391691  0.88995959    -0.83050
O489        O  0.32128294  0.42104759  0.87156387    -0.81350
O490        O  0.18711982  0.36726826  0.92529108    -0.85550
O491        O  0.18667450  0.41987480  0.87194842    -0.80410
O492        O  0.29030889  0.33321561  0.89124870    -0.82180
O493        O  0.28272110  0.46587239  0.91704595    -0.84930
C494        C  0.19228561  0.40576882  0.84317106     0.95840
C495        C  0.19202946  0.33894471  0.90999625     1.03280
O496        O  0.25421589  0.39791220  0.90221667    -1.13910
O497        O  0.28293107  0.41189412  0.97015446    -0.76340
O498        O  0.22569921  0.41270220  0.97016703    -0.79830
O499        O  0.21810825  0.38689500  0.83752944    -0.80650
C500        C  0.25428812  0.41173221  0.98563039     0.94740
O501        O  0.22549385  0.46584567  0.91622969    -0.78470
O502        O  0.32179668  0.36767535  0.92413423    -0.83670
C503        C  0.31639958  0.40570381  0.84326116     0.97360
C504        C  0.31616127  0.33888092  0.91007101     1.03280
O505        O  0.29145149  0.38562483  0.83825508    -0.79310
C506        C  0.25413096  0.48132772  0.91607748     1.01580
Fe507      Fe  0.41947577  0.29472992  0.91988271     1.65780
Fe508      Fe  0.41959409  0.20557731  0.91978297     1.73250
Fe509      Fe  0.36653835  0.25015032  0.86687753     1.54420
O510        O  0.33776666  0.28712239  0.89022097    -0.83050
O511        O  0.42481945  0.18298244  0.87163989    -0.81350
O512        O  0.37134560  0.31735385  0.92505636    -0.85550
O513        O  0.42417341  0.31761901  0.87193549    -0.80410
O514        O  0.33740824  0.21380419  0.89104744    -0.82180
O515        O  0.46990091  0.22156911  0.91687294    -0.84930
C516        C  0.40980197  0.31217118  0.84325610     0.95840
C517        C  0.34291689  0.31227690  0.91000847     1.03280
O518        O  0.40194097  0.25015228  0.90224789    -1.13910
O519        O  0.41612281  0.22151215  0.97019753    -0.76340
O520        O  0.41651850  0.27874704  0.97019709    -0.79830
O521        O  0.39067561  0.28651777  0.83772446    -0.80520
C522        C  0.41574355  0.25015582  0.98566783     0.94740
O523        O  0.46988485  0.27879892  0.91646660    -0.78470
O524        O  0.37166885  0.18264179  0.92443389    -0.83670
C525        C  0.40970355  0.18802545  0.84324053     0.97370
C526        C  0.34296950  0.18811822  0.91011509     1.03280
O527        O  0.38986881  0.21315437  0.83811888    -0.79310
C528        C  0.48536177  0.25016214  0.91610270     1.01580
Fe529      Fe  0.08886787  0.79479873  0.08907320     1.65780
Fe530      Fe  0.08876253  0.70564258  0.08916711     1.73250
Fe531      Fe  0.14180978  0.75021285  0.14207689     1.54410
O532        O  0.17061783  0.78712901  0.11867256    -0.83050
O533        O  0.08359831  0.68303093  0.13730732    -0.81350
O534        O  0.13699881  0.81743430  0.08393139    -0.85550
O535        O  0.08414231  0.81768664  0.13702311    -0.80410
O536        O  0.17089614  0.71378288  0.11797639    -0.82180
O537        O  0.03845389  0.72161759  0.09212712    -0.84930
C538        C  0.09856931  0.81226700  0.16568100     0.95840
C539        C  0.16544450  0.81232585  0.09893820     1.03280
O540        O  0.10640961  0.75021868  0.10670439    -1.13910
O541        O  0.09217726  0.72159317  0.03875989    -0.76340
O542        O  0.09185666  0.77882826  0.03875897    -0.79830
O543        O  0.11773639  0.78664230  0.17118713    -0.80520
C544        C  0.09259033  0.75023584  0.02329050     0.94740
O545        O  0.03845254  0.77884888  0.09245722    -0.78470
O546        O  0.13668941  0.68271941  0.08444891    -0.83670
C547        C  0.09863988  0.68812387  0.16573763     0.97370
C548        C  0.16536104  0.68814135  0.09884126     1.03280
O549        O  0.11841332  0.71329510  0.17088829    -0.79310
C550        C  0.02298273  0.75020644  0.09285792     1.01580
Fe551      Fe  0.41941514  0.70560537  0.08910302     1.65780
Fe552      Fe  0.41955594  0.79474955  0.08923375     1.73250
Fe553      Fe  0.36651166  0.75018078  0.14214481     1.54420
O554        O  0.33782887  0.71306506  0.11893054    -0.83050
O555        O  0.42495333  0.81727280  0.13739869    -0.81350
O556        O  0.37125298  0.68306673  0.08375566    -0.85550
O557        O  0.42393251  0.68263931  0.13702636    -0.80410
O558        O  0.33727447  0.78639360  0.11786382    -0.82180
O559        O  0.46985702  0.77870878  0.09196606    -0.84930
C560        C  0.40973228  0.68818868  0.16576952     0.95840
C561        C  0.34289344  0.68803307  0.09896941     1.03280
O562        O  0.40189824  0.75017808  0.10675858    -1.13910
O563        O  0.41592947  0.77887856  0.03881014    -0.76340
O564        O  0.41663462  0.72164754  0.03879696    -0.79830
O565        O  0.39078889  0.71396104  0.17138186    -0.80520
C566        C  0.41572221  0.75023779  0.02333206     0.94740
O567        O  0.46984172  0.72148028  0.09268220    -0.78470
O568        O  0.37164431  0.81773124  0.08475319    -0.83670
C569        C  0.40972145  0.81232233  0.16575061     0.97370
C570        C  0.34289585  0.81217334  0.09893575     1.03280
O571        O  0.38973774  0.78730457  0.17080899    -0.79310
C572        C  0.48532057  0.75012036  0.09287551     1.01580
Fe573      Fe  0.20961591  0.91557476  0.08916066     1.65780
Fe574      Fe  0.29877102  0.91547367  0.08907789     1.73250
Fe575      Fe  0.25418818  0.86261238  0.14215114     1.54410
O576        O  0.21716358  0.88595503  0.17084551    -0.83050
O577        O  0.32133867  0.86732224  0.08385040    -0.81350
O578        O  0.18700746  0.92087708  0.13728751    -0.85550
O579        O  0.18670228  0.86763564  0.08457776    -0.80410
O580        O  0.29050100  0.88682910  0.17130832    -0.82180
O581        O  0.28278140  0.91257269  0.03876794    -0.84930
C582        C  0.19219120  0.83894337  0.09890574     0.95840
C583        C  0.19204447  0.90579286  0.16570249     1.03280
O584        O  0.25419206  0.89795650  0.10672659    -1.13910
O585        O  0.28284026  0.96588621  0.09254376    -0.76340
O586        O  0.22560517  0.96587857  0.09200356    -0.79830
O587        O  0.21787677  0.83340539  0.11798647    -0.80520
C588        C  0.25419086  0.98134970  0.09283320     0.94740
O589        O  0.22555034  0.91204521  0.03875427    -0.78470
O590        O  0.32172120  0.92011272  0.13700504    -0.83670
C591        C  0.31630610  0.83894130  0.09900134     0.97360
C592        C  0.31622582  0.90584046  0.16572273     1.03280
O593        O  0.29121340  0.83385448  0.11888334    -0.79310
C594        C  0.25419698  0.91173795  0.02329132     1.01580
Fe595      Fe  0.20957395  0.58489623  0.08903526     1.65780
Fe596      Fe  0.29873199  0.58475575  0.08918493     1.73250
Fe597      Fe  0.25415462  0.63779278  0.14207258     1.54410
O598        O  0.21695063  0.66640064  0.11892493    -0.83050
O599        O  0.32124465  0.57929778  0.13734910    -0.81350
O600        O  0.18703970  0.63305317  0.08360594    -0.85550
O601        O  0.18658553  0.58044490  0.13694946    -0.80410
O602        O  0.29028934  0.66708155  0.11772198    -0.82180
O603        O  0.28267906  0.53446739  0.09187683    -0.84930
C604        C  0.19219140  0.59457543  0.16571687     0.95840
C605        C  0.19195821  0.66137477  0.09890204     1.03280
O606        O  0.25415288  0.60241087  0.10669399    -1.13910
O607        O  0.28286195  0.58842564  0.03876989    -0.76340
O608        O  0.22562972  0.58762243  0.03874685    -0.79830
O609        O  0.21801982  0.61343928  0.17135390    -0.80520
C610        C  0.25421905  0.58858588  0.02329186     0.94740
O611        O  0.22544931  0.53447810  0.09267703    -0.78470
O612        O  0.32173461  0.63266429  0.08475907    -0.83670
C613        C  0.31633325  0.59460001  0.16566798     0.97360
C614        C  0.31612577  0.66143721  0.09887405     1.03280
O615        O  0.29135789  0.61464496  0.17068430    -0.79310
C616        C  0.25409384  0.51900518  0.09283494     1.01580
Fe617      Fe  0.29875359  0.58486820  0.41989042     1.65780
Fe618      Fe  0.20959615  0.58474536  0.41974500     1.73250
Fe619      Fe  0.25418265  0.63781003  0.36688684     1.54410
O620        O  0.29130859  0.66645166  0.39012309    -0.83050
O621        O  0.18705608  0.57941613  0.37158258    -0.81350
O622        O  0.32133985  0.63299830  0.42524145    -0.85550
O623        O  0.32169242  0.58032746  0.37195802    -0.80410
O624        O  0.21797280  0.66703208  0.39119018    -0.82180
O625        O  0.22562027  0.53444652  0.41694224    -0.84930
C626        C  0.31614168  0.59455176  0.34322459     0.95840
C627        C  0.31636441  0.66136531  0.41005223     1.03280
O628        O  0.25417716  0.60240231  0.40224211    -1.13910
O629        O  0.22549153  0.58831175  0.47016103    -0.76340
O630        O  0.28272639  0.58768962  0.47018180    -0.79830
O631        O  0.29039077  0.61353448  0.33763799    -0.80520
C632        C  0.25413487  0.58857297  0.48563757     0.94740
O633        O  0.28285070  0.53445865  0.41633503    -0.78470
O634        O  0.18662170  0.63265972  0.42428617    -0.83670
C635        C  0.19202133  0.59466604  0.34324330     0.97370
C636        C  0.19218602  0.66141123  0.41011091     1.03280
O637        O  0.21705579  0.61462977  0.33820084    -0.79310
C638        C  0.25421001  0.51898440  0.41607785     1.01580
Fe639      Fe  0.41944517  0.58477562  0.29906290     1.65780
Fe640      Fe  0.41955460  0.58487377  0.20990871     1.73250
Fe641      Fe  0.36649454  0.63776721  0.25447722     1.54420
O642        O  0.33775074  0.61442786  0.29147687    -0.83050
O643        O  0.42476959  0.63301901  0.18731684    -0.81350
O644        O  0.37130547  0.57952311  0.32166015    -0.85550
O645        O  0.42406728  0.63271632  0.32197305    -0.80410
O646        O  0.33735933  0.61358049  0.21813305    -0.82180
O647        O  0.46986272  0.58779673  0.22590943    -0.84930
C648        C  0.40973466  0.66140849  0.31649296     0.95840
C649        C  0.34288917  0.59460571  0.31660914     1.03280
O650        O  0.40189966  0.60240131  0.25448295    -1.13910
O651        O  0.41610550  0.53446273  0.22583871    -0.76340
O652        O  0.41657418  0.53446343  0.28307342    -0.79830
O653        O  0.39064268  0.66694617  0.29081702    -0.80520
C654        C  0.41578596  0.51899391  0.25448307     0.94740
O655        O  0.46985894  0.58827392  0.28314181    -0.78470
O656        O  0.37162698  0.58020557  0.18696989    -0.83670
C657        C  0.40966103  0.66142061  0.19236530     0.97370
C658        C  0.34292617  0.59452182  0.19244048     1.03280
O659        O  0.38981046  0.66652995  0.21747878    -0.79310
C660        C  0.48533127  0.58861300  0.25450070     1.01580
Fe661      Fe  0.08889663  0.58485435  0.20989722     1.65780
Fe662      Fe  0.08876385  0.58500148  0.29904336     1.73250
Fe663      Fe  0.14185928  0.63785164  0.25446555     1.54410
O664        O  0.17053698  0.61457880  0.21738583    -0.83050
O665        O  0.08345188  0.63317513  0.32156004    -0.81350
O666        O  0.13703852  0.57953219  0.18731935    -0.85550
O667        O  0.08434159  0.63279132  0.18696540    -0.80410
O668        O  0.17105153  0.61356712  0.29071168    -0.82180
O669        O  0.03845944  0.58780107  0.28301270    -0.84930
C670        C  0.09860274  0.66151228  0.19249024     0.95840
C671        C  0.16543072  0.59467454  0.19231750     1.03280
O672        O  0.10643327  0.60250315  0.25446838    -1.13910
O673        O  0.09232629  0.53457600  0.28316973    -0.76340
O674        O  0.09172700  0.53455179  0.22593472    -0.79830
O675        O  0.11762545  0.66708454  0.21821362    -0.80520
C676        C  0.09260130  0.51909393  0.25453112     0.94740
O677        O  0.03847332  0.58839260  0.22578367    -0.78470
O678        O  0.13667225  0.58044418  0.32202308    -0.83670
C679        C  0.09868802  0.66152359  0.31658777     0.97370
C680        C  0.16542605  0.59462059  0.31647680     1.03280
O681        O  0.11865048  0.66657277  0.29155440    -0.79310
C682        C  0.02299441  0.58864697  0.25442136     1.01580
Fe683      Fe  0.08894184  0.70563536  0.41988776     1.65780
Fe684      Fe  0.08874853  0.79478408  0.41971374     1.73250
Fe685      Fe  0.14185403  0.75021749  0.36687414     1.54410
O686        O  0.17044688  0.71298529  0.38998942    -0.83050
O687        O  0.08328138  0.81726767  0.37153250    -0.81350
O688        O  0.13710319  0.68311312  0.42533248    -0.85550
O689        O  0.08451034  0.68266424  0.37196442    -0.80410
O690        O  0.17112992  0.78630513  0.39130503    -0.82180
O691        O  0.03846457  0.77869174  0.41703620    -0.84930
C692        C  0.09861836  0.68828427  0.34318920     0.95840
C693        C  0.16542286  0.68801180  0.41002832     1.03280
O694        O  0.10644190  0.75021216  0.40222612    -1.13910
O695        O  0.09243862  0.77894650  0.47014212    -0.76340
O696        O  0.09164777  0.72171387  0.47017987    -0.79830
O697        O  0.11748164  0.71411552  0.33754970    -0.80520
C698        C  0.09260461  0.75031010  0.48563020     0.94740
O699        O  0.03851393  0.72146560  0.41623557    -0.78470
O700        O  0.13663820  0.81782009  0.42412828    -0.83670
C701        C  0.09866936  0.81240306  0.34325073     0.97370
C702        C  0.16544134  0.81217808  0.41009134     1.03280
O703        O  0.11877023  0.78746658  0.33827286    -0.79310
C704        C  0.02301985  0.75009553  0.41608411     1.01580
Fe705      Fe  0.08880225  0.91554512  0.20989477     1.65780
Fe706      Fe  0.08897573  0.91565282  0.29905155     1.73250
Fe707      Fe  0.14182122  0.86258893  0.25444562     1.54410
O708        O  0.11849253  0.83389843  0.21739928    -0.83050
O709        O  0.13714747  0.92089111  0.32159384    -0.81350
O710        O  0.08350601  0.86741718  0.18728009    -0.85550
O711        O  0.13672874  0.92015353  0.18695321    -0.80410
O712        O  0.11761103  0.83341568  0.29075352    -0.82180
O713        O  0.09183968  0.96596442  0.28304844    -0.84930
C714        C  0.16543417  0.90585130  0.19245083     0.95840
C715        C  0.09862703  0.83901871  0.19229625     1.03280
O716        O  0.10646555  0.89800101  0.25446424    -1.13910
O717        O  0.03855143  0.91215986  0.28316431    -0.76340
O718        O  0.03851375  0.91266290  0.22592895    -0.79830
O719        O  0.17099511  0.88679631  0.21814922    -0.80520
C720        C  0.02306546  0.91183444  0.25452747     0.94740
O721        O  0.09230538  0.96595684  0.22581624    -0.78470
O722        O  0.08435451  0.86772764  0.32199592    -0.83670
C723        C  0.16552186  0.90572018  0.31656920     0.97370
C724        C  0.09860634  0.83900337  0.31648402     1.03280
O725        O  0.17059586  0.88583269  0.29148003    -0.79310
C726        C  0.09262678  0.98143158  0.25445646     1.01580
Fe727      Fe  0.41951418  0.91558279  0.20992347     1.65780
Fe728      Fe  0.41965622  0.91543747  0.29908185     1.73250
Fe729      Fe  0.36657791  0.86258244  0.25449268     1.54420
O730        O  0.33791866  0.88582376  0.21737291    -0.83050
O731        O  0.42502204  0.86726705  0.32160401    -0.81350
O732        O  0.37136981  0.92094030  0.18734371    -0.85550
O733        O  0.42404658  0.86765294  0.18696973    -0.80410
O734        O  0.33736418  0.88688229  0.29070428    -0.82180
O735        O  0.46995318  0.91267622  0.28304704    -0.84930
C736        C  0.40980953  0.83892500  0.19251319     0.95840
C737        C  0.34299707  0.90575802  0.19232159     1.03280
O738        O  0.40198979  0.89793415  0.25449936    -1.13910
O739        O  0.41605415  0.96585705  0.28320579    -0.76340
O740        O  0.41671176  0.96587743  0.22597057    -0.79830
O741        O  0.39083790  0.83333877  0.21826994    -0.80520
C742        C  0.41580990  0.98133519  0.25456453     0.94740
O743        O  0.46992741  0.91201658  0.22581692    -0.78470
O744        O  0.37174925  0.91995433  0.32206918    -0.83670
C745        C  0.40975546  0.83893286  0.31664999     0.97360
C746        C  0.34299311  0.90579081  0.31649756     1.03280
O747        O  0.38977146  0.83389852  0.29162521    -0.79310
C748        C  0.48540889  0.91179844  0.25445531     1.01580
Fe749      Fe  0.20964226  0.91542490  0.41987022     1.65780
Fe750      Fe  0.29878749  0.91558101  0.41972979     1.73250
Fe751      Fe  0.25421765  0.86251573  0.36684411     1.54420
O752        O  0.21700152  0.83391691  0.38995961    -0.83050
O753        O  0.32128294  0.92104758  0.37156387    -0.81350
O754        O  0.18711982  0.86726826  0.42529108    -0.85550
O755        O  0.18667450  0.91987480  0.37194842    -0.80410
O756        O  0.29030890  0.83321561  0.39124870    -0.82180
O757        O  0.28272110  0.96587239  0.41704593    -0.84930
C758        C  0.19228561  0.90576881  0.34317106     0.95840
C759        C  0.19202946  0.83894471  0.40999626     1.03280
O760        O  0.25421590  0.89791220  0.40221667    -1.13910
O761        O  0.28293108  0.91189413  0.47015446    -0.76340
O762        O  0.22569922  0.91270220  0.47016703    -0.79830
O763        O  0.21810824  0.88689497  0.33752944    -0.80650
C764        C  0.25428813  0.91173222  0.48563039     0.94740
O765        O  0.22549386  0.96584567  0.41622969    -0.78470
O766        O  0.32179668  0.86767535  0.42413424    -0.83670
C767        C  0.31639958  0.90570380  0.34326115     0.97360
C768        C  0.31616127  0.83888092  0.41007101     1.03280
O769        O  0.29145148  0.88562482  0.33825507    -0.79310
C770        C  0.25413097  0.98132772  0.41607748     1.01580
Fe771      Fe  0.41947577  0.79472992  0.41988272     1.65780
Fe772      Fe  0.41959409  0.70557731  0.41978298     1.73250
Fe773      Fe  0.36653836  0.75015032  0.36687753     1.54420
O774        O  0.33776667  0.78712240  0.39022096    -0.83050
O775        O  0.42481947  0.68298244  0.37163990    -0.81350
O776        O  0.37134559  0.81735384  0.42505638    -0.85550
O777        O  0.42417339  0.81761901  0.37193550    -0.80410
O778        O  0.33740824  0.71380420  0.39104746    -0.82180
O779        O  0.46990092  0.72156912  0.41687297    -0.84930
C780        C  0.40980197  0.81217118  0.34325610     0.95840
C781        C  0.34291689  0.81227690  0.41000847     1.03280
O782        O  0.40194097  0.75015228  0.40224790    -1.13910
O783        O  0.41612279  0.72151214  0.47019754    -0.76340
O784        O  0.41651851  0.77874704  0.47019710    -0.79830
O785        O  0.39067562  0.78651776  0.33772445    -0.80520
C786        C  0.41574355  0.75015582  0.48566784     0.94740
O787        O  0.46988484  0.77879893  0.41646659    -0.78470
O788        O  0.37166886  0.68264178  0.42443388    -0.83670
C789        C  0.40970356  0.68802544  0.34324054     0.97370
C790        C  0.34296950  0.68811822  0.41011509     1.03280
O791        O  0.38986881  0.71315436  0.33811889    -0.79310
C792        C  0.48536177  0.75016215  0.41610270     1.01580
Fe793      Fe  0.08886786  0.79479873  0.58907320     1.65780
Fe794      Fe  0.08876251  0.70564257  0.58916712     1.73250
Fe795      Fe  0.14180978  0.75021284  0.64207688     1.54410
O796        O  0.17061778  0.78712905  0.61867259    -0.83050
O797        O  0.08359822  0.68303095  0.63730732    -0.81350
O798        O  0.13699881  0.81743428  0.58393133    -0.85550
O799        O  0.08414236  0.81768665  0.63702311    -0.80410
O800        O  0.17089616  0.71378292  0.61797632    -0.82180
O801        O  0.03845387  0.72161761  0.59212707    -0.84930
C802        C  0.09856932  0.81226697  0.66568101     0.95840
C803        C  0.16544448  0.81232586  0.59893819     1.03280
O804        O  0.10640960  0.75021868  0.60670438    -1.13910
O805        O  0.09217729  0.72159315  0.53875990    -0.76340
O806        O  0.09185660  0.77882824  0.53875897    -0.79830
O807        O  0.11773635  0.78664224  0.67118716    -0.80520
C808        C  0.09259032  0.75023582  0.52329051     0.94740
O809        O  0.03845253  0.77884890  0.59245727    -0.78470
O810        O  0.13668938  0.68271937  0.58444897    -0.83670
C811        C  0.09863987  0.68812385  0.66573761     0.97370
C812        C  0.16536103  0.68814134  0.59884125     1.03280
O813        O  0.11841337  0.71329504  0.67088823    -0.79310
C814        C  0.02298271  0.75020646  0.59285793     1.01580
Fe815      Fe  0.41941512  0.70560537  0.58910303     1.65780
Fe816      Fe  0.41955593  0.79474955  0.58923376     1.73250
Fe817      Fe  0.36651165  0.75018078  0.64214483     1.54420
O818        O  0.33782885  0.71306507  0.61893056    -0.83050
O819        O  0.42495330  0.81727281  0.63739869    -0.81350
O820        O  0.37125296  0.68306673  0.58375569    -0.85550
O821        O  0.42393251  0.68263932  0.63702637    -0.80410
O822        O  0.33727446  0.78639360  0.61786385    -0.82180
O823        O  0.46985700  0.77870879  0.59196608    -0.84930
C824        C  0.40973228  0.68818868  0.66576953     0.95840
C825        C  0.34289342  0.68803308  0.59896943     1.03280
O826        O  0.40189822  0.75017808  0.60675859    -1.13910
O827        O  0.41592946  0.77887856  0.53881015    -0.76340
O828        O  0.41663459  0.72164754  0.53879697    -0.79830
O829        O  0.39078889  0.71396103  0.67138188    -0.80520
C830        C  0.41572220  0.75023779  0.52333207     0.94740
O831        O  0.46984170  0.72148030  0.59268219    -0.78470
O832        O  0.37164429  0.81773123  0.58475319    -0.83670
C833        C  0.40972144  0.81232233  0.66575062     0.97370
C834        C  0.34289583  0.81217333  0.59893576     1.03280
O835        O  0.38973774  0.78730457  0.67080901    -0.79310
C836        C  0.48532056  0.75012037  0.59287551     1.01580
Fe837      Fe  0.20961591  0.91557476  0.58916065     1.65780
Fe838      Fe  0.29877102  0.91547367  0.58907790     1.73250
Fe839      Fe  0.25418818  0.86261238  0.64215113     1.54410
O840        O  0.21716361  0.88595506  0.67084553    -0.83050
O841        O  0.32133868  0.86732225  0.58385043    -0.81350
O842        O  0.18700744  0.92087705  0.63728750    -0.85550
O843        O  0.18670228  0.86763564  0.58457771    -0.80410
O844        O  0.29050102  0.88682906  0.67130830    -0.82180
O845        O  0.28278141  0.91257266  0.53876794    -0.84930
C846        C  0.19219118  0.83894339  0.59890573     0.95840
C847        C  0.19204447  0.90579286  0.66570249     1.03280
O848        O  0.25419206  0.89795650  0.60672658    -1.13910
O849        O  0.28284025  0.96588621  0.59254373    -0.76340
O850        O  0.22560516  0.96587857  0.59200358    -0.79830
O851        O  0.21787672  0.83340541  0.61798649    -0.80520
C852        C  0.25419086  0.98134970  0.59283320     0.94740
O853        O  0.22555035  0.91204524  0.53875426    -0.78470
O854        O  0.32172118  0.92011275  0.63700505    -0.83670
C855        C  0.31630608  0.83894129  0.59900134     0.97360
C856        C  0.31622583  0.90584046  0.66572273     1.03280
O857        O  0.29121336  0.83385446  0.61888331    -0.79310
C858        C  0.25419699  0.91173795  0.52329131     1.01580
Fe859      Fe  0.20957395  0.58489624  0.58903526     1.65780
Fe860      Fe  0.29873199  0.58475575  0.58918493     1.73250
Fe861      Fe  0.25415462  0.63779277  0.64207258     1.54410
O862        O  0.21695056  0.66640060  0.61892501    -0.83050
O863        O  0.32124462  0.57929769  0.63734910    -0.81350
O864        O  0.18703973  0.63305320  0.58360588    -0.85550
O865        O  0.18658551  0.58044498  0.63694945    -0.80410
O866        O  0.29028927  0.66708159  0.61772191    -0.82180
O867        O  0.28267903  0.53446738  0.59187676    -0.84930
C868        C  0.19219143  0.59457544  0.66571689     0.95840
C869        C  0.19195819  0.66137476  0.59890205     1.03280
O870        O  0.25415288  0.60241087  0.60669399    -1.13910
O871        O  0.28286196  0.58842570  0.53876989    -0.76340
O872        O  0.22562973  0.58762238  0.53874685    -0.79830
O873        O  0.21801990  0.61343921  0.67135396    -0.80520
C874        C  0.25421906  0.58858588  0.52329185     0.94740
O875        O  0.22544928  0.53447810  0.59267708    -0.78470
O876        O  0.32173463  0.63266428  0.58475914    -0.83670
C877        C  0.31633327  0.59459999  0.66566796     0.97360
C878        C  0.31612575  0.66143722  0.59887406     1.03280
O879        O  0.29135796  0.61464501  0.67068424    -0.79310
C880        C  0.25409381  0.51900517  0.59283493     1.01580
Fe881      Fe  0.29875358  0.58486820  0.91989043     1.65780
Fe882      Fe  0.20959615  0.58474535  0.91974501     1.73250
Fe883      Fe  0.25418263  0.63781003  0.86688685     1.54410
O884        O  0.29130861  0.66645164  0.89012307    -0.83050
O885        O  0.18705608  0.57941608  0.87158260    -0.81350
O886        O  0.32133983  0.63299831  0.92524149    -0.85550
O887        O  0.32169242  0.58032750  0.87195803    -0.80410
O888        O  0.21797281  0.66703208  0.89119023    -0.82180
O889        O  0.22562029  0.53444651  0.91694228    -0.84930
C890        C  0.31614166  0.59455176  0.84322459     0.95840
C891        C  0.31636441  0.66136531  0.91005223     1.03280
O892        O  0.25417715  0.60240231  0.90224212    -1.13910
O893        O  0.22549152  0.58831177  0.97016104    -0.76340
O894        O  0.28272638  0.58768960  0.97018181    -0.79830
O895        O  0.29039073  0.61353446  0.83763797    -0.80520
C896        C  0.25413486  0.58857297  0.98563758     0.94740
O897        O  0.28285071  0.53445866  0.91633500    -0.78470
O898        O  0.18662168  0.63265970  0.92428616    -0.83670
C899        C  0.19202132  0.59466602  0.84324333     0.97370
C900        C  0.19218601  0.66141122  0.91011093     1.03280
O901        O  0.21705575  0.61462978  0.83820088    -0.79310
C902        C  0.25421003  0.51898440  0.91607785     1.01580
Fe903      Fe  0.41944517  0.58477562  0.79906291     1.65780
Fe904      Fe  0.41955460  0.58487376  0.70990871     1.73250
Fe905      Fe  0.36649453  0.63776720  0.75447721     1.54420
O906        O  0.33775070  0.61442782  0.79147683    -0.83050
O907        O  0.42476956  0.63301900  0.68731683    -0.81350
O908        O  0.37130547  0.57952316  0.82166016    -0.85550
O909        O  0.42406730  0.63271633  0.82197303    -0.80410
O910        O  0.33735936  0.61358050  0.71813300    -0.82180
O911        O  0.46986273  0.58779675  0.72590944    -0.84930
C912        C  0.40973465  0.66140848  0.81649296     0.95840
C913        C  0.34288915  0.59460571  0.81660912     1.03280
O914        O  0.40189965  0.60240130  0.75448296    -1.13910
O915        O  0.41610554  0.53446273  0.72583873    -0.76340
O916        O  0.41657415  0.53446343  0.78307344    -0.79830
O917        O  0.39064263  0.66694614  0.79081705    -0.80520
C918        C  0.41578596  0.51899391  0.75448309     0.94740
O919        O  0.46985894  0.58827390  0.78314181    -0.78470
O920        O  0.37162699  0.58020552  0.68696989    -0.83670
C921        C  0.40966103  0.66142061  0.69236531     0.97370
C922        C  0.34292619  0.59452180  0.69244045     1.03280
O923        O  0.38981049  0.66652996  0.71747881    -0.79310
C924        C  0.48533127  0.58861300  0.75450071     1.01580
Fe925      Fe  0.08889663  0.58485436  0.70989722     1.65780
Fe926      Fe  0.08876387  0.58500148  0.79904336     1.73250
Fe927      Fe  0.14185930  0.63785164  0.75446555     1.54410
O928        O  0.17053706  0.61457870  0.71738593    -0.83050
O929        O  0.08345200  0.63317512  0.82156007    -0.81350
O930        O  0.13703850  0.57953231  0.68731931    -0.85550
O931        O  0.08434148  0.63279134  0.68696544    -0.80410
O932        O  0.17105147  0.61356720  0.79071178    -0.82180
O933        O  0.03845945  0.58780116  0.78301273    -0.84930
C934        C  0.09860273  0.66151226  0.69249022     0.95840
C935        C  0.16543075  0.59467455  0.69231753     1.03280
O936        O  0.10643327  0.60250316  0.75446838    -1.13910
O937        O  0.09232621  0.53457600  0.78316970    -0.76340
O938        O  0.09172709  0.53455179  0.72593468    -0.79830
O939        O  0.11762557  0.66708447  0.71821351    -0.80520
C940        C  0.09260131  0.51909393  0.75453109     0.94740
O941        O  0.03847331  0.58839252  0.72578371    -0.78470
O942        O  0.13667227  0.58044407  0.82202305    -0.83670
C943        C  0.09868804  0.66152362  0.81658773     0.97370
C944        C  0.16542604  0.59462058  0.81647683     1.03280
O945        O  0.11865041  0.66657284  0.79155430    -0.79310
C946        C  0.02299441  0.58864698  0.75442139     1.01580
Fe947      Fe  0.08894185  0.70563536  0.91988776     1.65780
Fe948      Fe  0.08874852  0.79478408  0.91971373     1.73250
Fe949      Fe  0.14185404  0.75021749  0.86687415     1.54410
O950        O  0.17044684  0.71298522  0.88998935    -0.83050
O951        O  0.08328129  0.81726763  0.87153249    -0.81350
O952        O  0.13710321  0.68311316  0.92533255    -0.85550
O953        O  0.08451044  0.68266423  0.87196442    -0.80410
O954        O  0.17112998  0.78630506  0.89130512    -0.82180
O955        O  0.03846457  0.77869171  0.91703627    -0.84930
C956        C  0.09861838  0.68828430  0.84318917     0.95840
C957        C  0.16542285  0.68801179  0.91002832     1.03280
O958        O  0.10644191  0.75021216  0.90222611    -1.13910
O959        O  0.09243869  0.77894652  0.97014211    -0.76340
O960        O  0.09164770  0.72171389  0.97017986    -0.79830
O961        O  0.11748159  0.71411561  0.83754963    -0.80520
C962        C  0.09260462  0.75031012  0.98563020     0.94740
O963        O  0.03851393  0.72146558  0.91623549    -0.78470
O964        O  0.13663818  0.81782012  0.92412819    -0.83670
C965        C  0.09866936  0.81240308  0.84325075     0.97370
C966        C  0.16544136  0.81217807  0.91009134     1.03280
O967        O  0.11877031  0.78746666  0.83827292    -0.79310
C968        C  0.02301985  0.75009550  0.91608410     1.01580
Fe969      Fe  0.08880226  0.91554511  0.70989477     1.65780
Fe970      Fe  0.08897573  0.91565282  0.79905155     1.73250
Fe971      Fe  0.14182122  0.86258892  0.75444563     1.54410
O972        O  0.11849250  0.83389839  0.71739932    -0.83050
O973        O  0.13714746  0.92089107  0.82159386    -0.81350
O974        O  0.08350607  0.86741718  0.68728008    -0.85550
O975        O  0.13672876  0.92015356  0.68695323    -0.80410
O976        O  0.11761106  0.83341572  0.79075357    -0.82180
O977        O  0.09183972  0.96596441  0.78304845    -0.84930
C978        C  0.16543417  0.90585130  0.69245082     0.95840
C979        C  0.09862704  0.83901869  0.69229627     1.03280
O980        O  0.10646555  0.89800101  0.75446425    -1.13910
O981        O  0.03855143  0.91215990  0.78316430    -0.76340
O982        O  0.03851376  0.91266286  0.72592894    -0.79830
O983        O  0.17099509  0.88679626  0.71814918    -0.80520
C984        C  0.02306547  0.91183444  0.75452746     0.94740
O985        O  0.09230535  0.96595684  0.72581625    -0.78470
O986        O  0.08435447  0.86772764  0.82199591    -0.83670
C987        C  0.16552187  0.90572018  0.81656919     0.97370
C988        C  0.09860633  0.83900339  0.81648404     1.03280
O989        O  0.17059589  0.88583272  0.79148000    -0.79310
C990        C  0.09262678  0.98143158  0.75445647     1.01580
Fe991      Fe  0.41951418  0.91558279  0.70992347     1.65780
Fe992      Fe  0.41965623  0.91543747  0.79908185     1.73250
Fe993      Fe  0.36657791  0.86258246  0.75449269     1.54420
O994        O  0.33791866  0.88582377  0.71737292    -0.83050
O995        O  0.42502206  0.86726705  0.82160401    -0.81350
O996        O  0.37136981  0.92094031  0.68734371    -0.85550
O997        O  0.42404657  0.86765294  0.68696973    -0.80410
O998        O  0.33736418  0.88688231  0.79070429    -0.82180
O999        O  0.46995319  0.91267623  0.78304704    -0.84930
C1000       C  0.40980952  0.83892501  0.69251320     0.95840
C1001       C  0.34299707  0.90575802  0.69232159     1.03280
O1002       O  0.40198980  0.89793416  0.75449936    -1.13910
O1003       O  0.41605416  0.96585705  0.78320580    -0.76340
O1004       O  0.41671176  0.96587743  0.72597058    -0.79830
O1005       O  0.39083790  0.83333878  0.71826995    -0.80520
C1006       C  0.41580990  0.98133519  0.75456453     0.94740
O1007       O  0.46992741  0.91201658  0.72581691    -0.78470
O1008       O  0.37174927  0.91995434  0.82206919    -0.83670
C1009       C  0.40975547  0.83893287  0.81664999     0.97360
C1010       C  0.34299312  0.90579082  0.81649757     1.03280
O1011       O  0.38977145  0.83389853  0.79162521    -0.79310
C1012       C  0.48540889  0.91179844  0.75445530     1.01580
Fe1013     Fe  0.20964226  0.91542489  0.91987022     1.65780
Fe1014     Fe  0.29878749  0.91558101  0.91972980     1.73250
Fe1015     Fe  0.25421766  0.86251573  0.86684411     1.54420
O1016       O  0.21700152  0.83391690  0.88995959    -0.83050
O1017       O  0.32128294  0.92104760  0.87156387    -0.81350
O1018       O  0.18711983  0.86726825  0.92529108    -0.85550
O1019       O  0.18667451  0.91987478  0.87194842    -0.80410
O1020       O  0.29030890  0.83321560  0.89124871    -0.82180
O1021       O  0.28272109  0.96587239  0.91704595    -0.84930
C1022       C  0.19228562  0.90576880  0.84317105     0.95840
C1023       C  0.19202947  0.83894470  0.90999625     1.03280
O1024       O  0.25421590  0.89791220  0.90221667    -1.13910
O1025       O  0.28293107  0.91189412  0.97015446    -0.76340
O1026       O  0.22569921  0.91270220  0.97016703    -0.79830
O1027       O  0.21810826  0.88689498  0.83752943    -0.80650
C1028       C  0.25428812  0.91173221  0.98563039     0.94740
O1029       O  0.22549385  0.96584566  0.91622968    -0.78470
O1030       O  0.32179668  0.86767535  0.92413423    -0.83670
C1031       C  0.31639959  0.90570381  0.84326116     0.97360
C1032       C  0.31616127  0.83888092  0.91007101     1.03280
O1033       O  0.29145150  0.88562482  0.83825508    -0.79310
C1034       C  0.25413096  0.98132772  0.91607748     1.01580
Fe1035     Fe  0.41947578  0.79472991  0.91988271     1.65780
Fe1036     Fe  0.41959409  0.70557730  0.91978298     1.73250
Fe1037     Fe  0.36653836  0.75015032  0.86687753     1.54420
O1038       O  0.33776667  0.78712239  0.89022097    -0.83050
O1039       O  0.42481945  0.68298243  0.87163990    -0.81350
O1040       O  0.37134560  0.81735385  0.92505636    -0.85550
O1041       O  0.42417341  0.81761900  0.87193550    -0.80410
O1042       O  0.33740825  0.71380419  0.89104744    -0.82180
O1043       O  0.46990091  0.72156911  0.91687295    -0.84930
C1044       C  0.40980197  0.81217118  0.84325610     0.95840
C1045       C  0.34291689  0.81227689  0.91000847     1.03280
O1046       O  0.40194097  0.75015227  0.90224790    -1.13910
O1047       O  0.41612281  0.72151215  0.97019753    -0.76340
O1048       O  0.41651851  0.77874704  0.97019709    -0.79830
O1049       O  0.39067561  0.78651777  0.83772446    -0.80520
C1050       C  0.41574355  0.75015582  0.98566783     0.94740
O1051       O  0.46988485  0.77879891  0.91646660    -0.78470
O1052       O  0.37166885  0.68264179  0.92443390    -0.83670
C1053       C  0.40970355  0.68802544  0.84324054     0.97370
C1054       C  0.34296950  0.68811822  0.91011509     1.03280
O1055       O  0.38986882  0.71315437  0.83811888    -0.79310
C1056       C  0.48536177  0.75016213  0.91610270     1.01580
Fe1057     Fe  0.58886787  0.29479874  0.08907320     1.65780
Fe1058     Fe  0.58876253  0.20564258  0.08916711     1.73250
Fe1059     Fe  0.64180978  0.25021285  0.14207689     1.54410
O1060       O  0.67061784  0.28712900  0.11867254    -0.83050
O1061       O  0.58359830  0.18303093  0.13730732    -0.81350
O1062       O  0.63699881  0.31743430  0.08393140    -0.85550
O1063       O  0.58414230  0.31768663  0.13702312    -0.80410
O1064       O  0.67089613  0.21378287  0.11797638    -0.82180
O1065       O  0.53845389  0.22161760  0.09212712    -0.84930
C1066       C  0.59856932  0.31226699  0.16568100     0.95840
C1067       C  0.66544451  0.31232585  0.09893820     1.03280
O1068       O  0.60640961  0.25021869  0.10670439    -1.13910
O1069       O  0.59217725  0.22159317  0.03875989    -0.76340
O1070       O  0.59185667  0.27882827  0.03875898    -0.79830
O1071       O  0.61773641  0.28664230  0.17118712    -0.80520
C1072       C  0.59259032  0.25023585  0.02329051     0.94740
O1073       O  0.53845254  0.27884889  0.09245722    -0.78470
O1074       O  0.63668941  0.18271940  0.08444890    -0.83670
C1075       C  0.59863988  0.18812388  0.16573763     0.97370
C1076       C  0.66536103  0.18814134  0.09884126     1.03280
O1077       O  0.61841332  0.21329511  0.17088829    -0.79310
C1078       C  0.52298273  0.25020645  0.09285792     1.01580
Fe1079     Fe  0.91941513  0.20560537  0.08910302     1.65780
Fe1080     Fe  0.91955593  0.29474955  0.08923375     1.73250
Fe1081     Fe  0.86651165  0.25018078  0.14214482     1.54420
O1082       O  0.83782884  0.21306509  0.11893051    -0.83050
O1083       O  0.92495328  0.31727281  0.13739869    -0.81350
O1084       O  0.87125298  0.18306672  0.08375570    -0.85550
O1085       O  0.92393255  0.18263932  0.13702637    -0.80410
O1086       O  0.83727449  0.28639363  0.11786386    -0.82180
O1087       O  0.96985701  0.27870880  0.09196609    -0.84930
C1088       C  0.90973229  0.18818866  0.16576951     0.95840
C1089       C  0.84289343  0.18803308  0.09896942     1.03280
O1090       O  0.90189823  0.25017808  0.10675858    -1.13910
O1091       O  0.91592949  0.27887855  0.03881014    -0.76340
O1092       O  0.91663458  0.22164753  0.03879696    -0.79830
O1093       O  0.89078886  0.21396100  0.17138184    -0.80520
C1094       C  0.91572221  0.25023778  0.02333206     0.94740
O1095       O  0.96984171  0.22148030  0.09268216    -0.78470
O1096       O  0.87164429  0.31773122  0.08475315    -0.83670
C1097       C  0.90972144  0.31232232  0.16575062     0.97370
C1098       C  0.84289585  0.31217334  0.09893575     1.03280
O1099       O  0.88973777  0.28730453  0.17080902    -0.79310
C1100       C  0.98532057  0.25012038  0.09287550     1.01580
Fe1101     Fe  0.70961591  0.41557476  0.08916066     1.65780
Fe1102     Fe  0.79877102  0.41547367  0.08907790     1.73250
Fe1103     Fe  0.75418818  0.36261238  0.14215114     1.54410
O1104       O  0.71716357  0.38595502  0.17084551    -0.83050
O1105       O  0.82133867  0.36732224  0.08385038    -0.81350
O1106       O  0.68700746  0.42087709  0.13728752    -0.85550
O1107       O  0.68670228  0.36763564  0.08457777    -0.80410
O1108       O  0.79050099  0.38682912  0.17130833    -0.82180
O1109       O  0.78278140  0.41257270  0.03876795    -0.84930
C1110       C  0.69219121  0.33894337  0.09890574     0.95840
C1111       C  0.69204447  0.40579286  0.16570249     1.03280
O1112       O  0.75419206  0.39795650  0.10672659    -1.13910
O1113       O  0.78284027  0.46588621  0.09254377    -0.76340
O1114       O  0.72560518  0.46587857  0.09200356    -0.79830
O1115       O  0.71787678  0.33340538  0.11798646    -0.80520
C1116       C  0.75419087  0.48134970  0.09283321     0.94740
O1117       O  0.72555034  0.41204521  0.03875427    -0.78470
O1118       O  0.82172121  0.42011271  0.13700504    -0.83670
C1119       C  0.81630610  0.33894131  0.09900134     0.97360
C1120       C  0.81622582  0.40584046  0.16572273     1.03280
O1121       O  0.79121341  0.33385450  0.11888336    -0.79310
C1122       C  0.75419698  0.41173795  0.02329132     1.01580
Fe1123     Fe  0.70957395  0.08489623  0.08903526     1.65780
Fe1124     Fe  0.79873199  0.08475575  0.08918493     1.73250
Fe1125     Fe  0.75415461  0.13779277  0.14207258     1.54410
O1126       O  0.71695060  0.16640062  0.11892496    -0.83050
O1127       O  0.82124464  0.07929774  0.13734910    -0.81350
O1128       O  0.68703970  0.13305317  0.08360592    -0.85550
O1129       O  0.68658552  0.08044492  0.13694946    -0.80410
O1130       O  0.79028930  0.16708157  0.11772195    -0.82180
O1131       O  0.78267906  0.03446739  0.09187680    -0.84930
C1132       C  0.69219141  0.09457543  0.16571687     0.95840
C1133       C  0.69195819  0.16137475  0.09890204     1.03280
O1134       O  0.75415288  0.10241087  0.10669399    -1.13910
O1135       O  0.78286195  0.08842567  0.03876989    -0.76340
O1136       O  0.72562973  0.08762241  0.03874685    -0.79830
O1137       O  0.71801985  0.11343925  0.17135392    -0.80520
C1138       C  0.75421905  0.08858588  0.02329186     0.94740
O1139       O  0.72544931  0.03447810  0.09267705    -0.78470
O1140       O  0.82173461  0.13266429  0.08475910    -0.83670
C1141       C  0.81633326  0.09460000  0.16566798     0.97360
C1142       C  0.81612576  0.16143721  0.09887405     1.03280
O1143       O  0.79135792  0.11464498  0.17068428    -0.79310
C1144       C  0.75409384  0.01900517  0.09283494     1.01580
Fe1145     Fe  0.79875359  0.08486821  0.41989042     1.65780
Fe1146     Fe  0.70959616  0.08474536  0.41974500     1.73250
Fe1147     Fe  0.75418264  0.13781004  0.36688684     1.54410
O1148       O  0.79130860  0.16645165  0.39012307    -0.83050
O1149       O  0.68705609  0.07941610  0.37158258    -0.81350
O1150       O  0.82133984  0.13299831  0.42524147    -0.85550
O1151       O  0.82169243  0.08032750  0.37195802    -0.80410
O1152       O  0.71797281  0.16703209  0.39119021    -0.82180
O1153       O  0.72562030  0.03444652  0.41694226    -0.84930
C1154       C  0.81614167  0.09455177  0.34322459     0.95840
C1155       C  0.81636441  0.16136532  0.41005223     1.03280
O1156       O  0.75417716  0.10240232  0.40224212    -1.13910
O1157       O  0.72549153  0.08831176  0.47016103    -0.76340
O1158       O  0.78272639  0.08768961  0.47018180    -0.79830
O1159       O  0.79039075  0.11353448  0.33763797    -0.80520
C1160       C  0.75413487  0.08857297  0.48563757     0.94740
O1161       O  0.78285072  0.03445866  0.41633501    -0.78470
O1162       O  0.68662169  0.13265970  0.42428615    -0.83670
C1163       C  0.69202133  0.09466604  0.34324331     0.97370
C1164       C  0.69218602  0.16141122  0.41011092     1.03280
O1165       O  0.71705577  0.11462979  0.33820086    -0.79310
C1166       C  0.75421004  0.01898441  0.41607784     1.01580
Fe1167     Fe  0.91944517  0.08477562  0.29906290     1.65780
Fe1168     Fe  0.91955460  0.08487376  0.20990871     1.73250
Fe1169     Fe  0.86649454  0.13776721  0.25447721     1.54420
O1170       O  0.83775072  0.11442785  0.29147685    -0.83050
O1171       O  0.92476957  0.13301899  0.18731683    -0.81350
O1172       O  0.87130547  0.07952314  0.32166015    -0.85550
O1173       O  0.92406730  0.13271632  0.32197304    -0.80410
O1174       O  0.83735935  0.11358050  0.21813302    -0.82180
O1175       O  0.96986272  0.08779673  0.22590943    -0.84930
C1176       C  0.90973467  0.16140848  0.31649296     0.95840
C1177       C  0.84288916  0.09460572  0.31660913     1.03280
O1178       O  0.90189966  0.10240130  0.25448295    -1.13910
O1179       O  0.91610552  0.03446272  0.22583872    -0.76340
O1180       O  0.91657416  0.03446343  0.28307343    -0.79830
O1181       O  0.89064267  0.16694615  0.29081703    -0.80520
C1182       C  0.91578596  0.01899390  0.25448308     0.94740
O1183       O  0.96985894  0.08827390  0.28314181    -0.78470
O1184       O  0.87162698  0.08020554  0.18696990    -0.83670
C1185       C  0.90966104  0.16142060  0.19236530     0.97370
C1186       C  0.84292617  0.09452182  0.19244047     1.03280
O1187       O  0.88981049  0.16652995  0.21747880    -0.79310
C1188       C  0.98533127  0.08861299  0.25450070     1.01580
Fe1189     Fe  0.58889663  0.08485435  0.20989723     1.65780
Fe1190     Fe  0.58876386  0.08500149  0.29904337     1.73250
Fe1191     Fe  0.64185928  0.13785165  0.25446555     1.54410
O1192       O  0.67053700  0.11457878  0.21738585    -0.83050
O1193       O  0.58345191  0.13317513  0.32156005    -0.81350
O1194       O  0.63703851  0.07953223  0.18731934    -0.85550
O1195       O  0.58434157  0.13279133  0.18696542    -0.80410
O1196       O  0.67105151  0.11356714  0.29071171    -0.82180
O1197       O  0.53845944  0.08780109  0.28301271    -0.84930
C1198       C  0.59860274  0.16151228  0.19249024     0.95840
C1199       C  0.66543073  0.09467454  0.19231751     1.03280
O1200       O  0.60643327  0.10250316  0.25446838    -1.13910
O1201       O  0.59232627  0.03457600  0.28316973    -0.76340
O1202       O  0.59172702  0.03455179  0.22593471    -0.79830
O1203       O  0.61762548  0.16708453  0.21821360    -0.80520
C1204       C  0.59260130  0.01909393  0.25453111     0.94740
O1205       O  0.53847331  0.08839259  0.22578369    -0.78470
O1206       O  0.63667226  0.08044415  0.32202307    -0.83670
C1207       C  0.59868803  0.16152360  0.31658776     0.97370
C1208       C  0.66542605  0.09462059  0.31647681     1.03280
O1209       O  0.61865046  0.16657279  0.29155438    -0.79310
C1210       C  0.52299441  0.08864698  0.25442138     1.01580
Fe1211     Fe  0.58894185  0.20563536  0.41988777     1.65780
Fe1212     Fe  0.58874852  0.29478407  0.41971374     1.73250
Fe1213     Fe  0.64185403  0.25021748  0.36687415     1.54410
O1214       O  0.67044685  0.21298524  0.38998938    -0.83050
O1215       O  0.58328132  0.31726764  0.37153250    -0.81350
O1216       O  0.63710321  0.18311314  0.42533253    -0.85550
O1217       O  0.58451040  0.18266422  0.37196443    -0.80410
O1218       O  0.67112995  0.28630508  0.39130508    -0.82180
O1219       O  0.53846457  0.27869172  0.41703624    -0.84930
C1220       C  0.59861836  0.18828428  0.34318919     0.95840
C1221       C  0.66542285  0.18801179  0.41002832     1.03280
O1222       O  0.60644190  0.25021216  0.40222612    -1.13910
O1223       O  0.59243866  0.27894651  0.47014212    -0.76340
O1224       O  0.59164773  0.22171388  0.47017987    -0.79830
O1225       O  0.61748159  0.21411557  0.33754966    -0.80520
C1226       C  0.59260461  0.25031011  0.48563020     0.94740
O1227       O  0.53851393  0.22146558  0.41623553    -0.78470
O1228       O  0.63663819  0.31782010  0.42412823    -0.83670
C1229       C  0.59866935  0.31240306  0.34325075     0.97370
C1230       C  0.66544135  0.31217807  0.41009134     1.03280
O1231       O  0.61877027  0.28746662  0.33827290    -0.79310
C1232       C  0.52301985  0.25009551  0.41608411     1.01580
Fe1233     Fe  0.58880225  0.41554512  0.20989477     1.65780
Fe1234     Fe  0.58897573  0.41565281  0.29905155     1.73250
Fe1235     Fe  0.64182121  0.36258893  0.25444563     1.54410
O1236       O  0.61849250  0.33389841  0.21739930    -0.83050
O1237       O  0.63714746  0.42089109  0.32159386    -0.81350
O1238       O  0.58350603  0.36741718  0.18728008    -0.85550
O1239       O  0.63672875  0.42015355  0.18695323    -0.80410
O1240       O  0.61761104  0.33341570  0.29075355    -0.82180
O1241       O  0.59183969  0.46596441  0.28304845    -0.84930
C1242       C  0.66543417  0.40585130  0.19245082     0.95840
C1243       C  0.59862703  0.33901871  0.19229626     1.03280
O1244       O  0.60646554  0.39800101  0.25446425    -1.13910
O1245       O  0.53855142  0.41215988  0.28316430    -0.76340
O1246       O  0.53851375  0.41266288  0.22592895    -0.79830
O1247       O  0.67099509  0.38679629  0.21814920    -0.80520
C1248       C  0.52306546  0.41183444  0.25452746     0.94740
O1249       O  0.59230536  0.46595684  0.22581625    -0.78470
O1250       O  0.58435448  0.36772764  0.32199591    -0.83670
C1251       C  0.66552186  0.40572017  0.31656920     0.97370
C1252       C  0.59860633  0.33900338  0.31648403     1.03280
O1253       O  0.67059587  0.38583270  0.29148002    -0.79310
C1254       C  0.59262678  0.48143158  0.25445648     1.01580
Fe1255     Fe  0.91951417  0.41558278  0.20992348     1.65780
Fe1256     Fe  0.91965622  0.41543746  0.29908185     1.73250
Fe1257     Fe  0.86657790  0.36258244  0.25449269     1.54420
O1258       O  0.83791866  0.38582375  0.21737291    -0.83050
O1259       O  0.92502205  0.36726704  0.32160401    -0.81350
O1260       O  0.87136981  0.42094031  0.18734372    -0.85550
O1261       O  0.92404656  0.36765293  0.18696973    -0.80410
O1262       O  0.83736417  0.38688230  0.29070428    -0.82180
O1263       O  0.96995318  0.41267623  0.28304704    -0.84930
C1264       C  0.90980952  0.33892500  0.19251320     0.95840
C1265       C  0.84299707  0.40575802  0.19232160     1.03280
O1266       O  0.90198979  0.39793415  0.25449936    -1.13910
O1267       O  0.91605413  0.46585705  0.28320580    -0.76340
O1268       O  0.91671177  0.46587743  0.22597058    -0.79830
O1269       O  0.89083791  0.33333876  0.21826996    -0.80520
C1270       C  0.91580990  0.48133519  0.25456454     0.94740
O1271       O  0.96992740  0.41201656  0.22581692    -0.78470
O1272       O  0.87174925  0.41995432  0.32206919    -0.83670
C1273       C  0.90975546  0.33893286  0.31665000     0.97360
C1274       C  0.84299310  0.40579081  0.31649756     1.03280
O1275       O  0.88977144  0.33389853  0.29162522    -0.79310
C1276       C  0.98540888  0.41179844  0.25445531     1.01580
Fe1277     Fe  0.70964225  0.41542489  0.41987022     1.65780
Fe1278     Fe  0.79878749  0.41558101  0.41972980     1.73250
Fe1279     Fe  0.75421765  0.36251572  0.36684411     1.54420
O1280       O  0.71700154  0.33391688  0.38995962    -0.83050
O1281       O  0.82128294  0.42104757  0.37156387    -0.81350
O1282       O  0.68711981  0.36726825  0.42529106    -0.85550
O1283       O  0.68667451  0.41987480  0.37194842    -0.80410
O1284       O  0.79030892  0.33321561  0.39124869    -0.82180
O1285       O  0.78272109  0.46587239  0.41704593    -0.84930
C1286       C  0.69228561  0.40576879  0.34317106     0.95840
C1287       C  0.69202947  0.33894469  0.40999626     1.03280
O1288       O  0.75421589  0.39791219  0.40221667    -1.13910
O1289       O  0.78293107  0.41189414  0.47015446    -0.76340
O1290       O  0.72569921  0.41270218  0.47016703    -0.79830
O1291       O  0.71810823  0.38689494  0.33752945    -0.80650
C1292       C  0.75428812  0.41173221  0.48563039     0.94740
O1293       O  0.72549385  0.46584566  0.41622970    -0.78470
O1294       O  0.82179668  0.36767535  0.42413426    -0.83670
C1295       C  0.81639957  0.40570380  0.34326115     0.97360
C1296       C  0.81616128  0.33888092  0.41007102     1.03280
O1297       O  0.79145147  0.38562483  0.33825507    -0.79310
C1298       C  0.75413096  0.48132771  0.41607748     1.01580
Fe1299     Fe  0.91947578  0.29472991  0.41988272     1.65780
Fe1300     Fe  0.91959410  0.20557730  0.41978298     1.73250
Fe1301     Fe  0.86653837  0.25015031  0.36687753     1.54420
O1302       O  0.83776669  0.28712242  0.39022095    -0.83050
O1303       O  0.92481950  0.18298244  0.37163989    -0.81350
O1304       O  0.87134560  0.31735384  0.42505640    -0.85550
O1305       O  0.92417338  0.31761902  0.37193551    -0.80410
O1306       O  0.83740824  0.21380422  0.39104747    -0.82180
O1307       O  0.96990092  0.22156912  0.41687298    -0.84930
C1308       C  0.90980197  0.31217117  0.34325610     0.95840
C1309       C  0.84291690  0.31227690  0.41000848     1.03280
O1310       O  0.90194098  0.25015227  0.40224790    -1.13910
O1311       O  0.91612279  0.22151213  0.47019753    -0.76340
O1312       O  0.91651853  0.27874703  0.47019709    -0.79830
O1313       O  0.89067565  0.28651774  0.33772444    -0.80520
C1314       C  0.91574355  0.25015580  0.48566784     0.94740
O1315       O  0.96988485  0.27879892  0.41646658    -0.78470
O1316       O  0.87166887  0.18264178  0.42443386    -0.83670
C1317       C  0.90970356  0.18802544  0.34324054     0.97370
C1318       C  0.84296950  0.18811823  0.41011509     1.03280
O1319       O  0.88986880  0.21315434  0.33811890    -0.79310
C1320       C  0.98536178  0.25016214  0.41610270     1.01580
Fe1321     Fe  0.58886786  0.29479873  0.58907321     1.65780
Fe1322     Fe  0.58876252  0.20564257  0.58916712     1.73250
Fe1323     Fe  0.64180978  0.25021284  0.64207689     1.54410
O1324       O  0.67061782  0.28712901  0.61867255    -0.83050
O1325       O  0.58359828  0.18303093  0.63730732    -0.81350
O1326       O  0.63699880  0.31743429  0.58393138    -0.85550
O1327       O  0.58414231  0.31768663  0.63702312    -0.80410
O1328       O  0.67089614  0.21378288  0.61797637    -0.82180
O1329       O  0.53845388  0.22161759  0.59212711    -0.84930
C1330       C  0.59856932  0.31226698  0.66568101     0.95840
C1331       C  0.66544449  0.31232585  0.59893819     1.03280
O1332       O  0.60640960  0.25021868  0.60670439    -1.13910
O1333       O  0.59217726  0.22159316  0.53875990    -0.76340
O1334       O  0.59185664  0.27882825  0.53875898    -0.79830
O1335       O  0.61773639  0.28664228  0.67118713    -0.80520
C1336       C  0.59259032  0.25023583  0.52329051     0.94740
O1337       O  0.53845254  0.27884888  0.59245724    -0.78470
O1338       O  0.63668940  0.18271939  0.58444892    -0.83670
C1339       C  0.59863988  0.18812387  0.66573763     0.97370
C1340       C  0.66536103  0.18814134  0.59884126     1.03280
O1341       O  0.61841334  0.21329509  0.67088828    -0.79310
C1342       C  0.52298272  0.25020644  0.59285793     1.01580
Fe1343     Fe  0.91941512  0.20560536  0.58910303     1.65780
Fe1344     Fe  0.91955594  0.29474954  0.58923375     1.73250
Fe1345     Fe  0.86651165  0.25018078  0.64214482     1.54420
O1346       O  0.83782886  0.21306506  0.61893056    -0.83050
O1347       O  0.92495332  0.31727280  0.63739868    -0.81350
O1348       O  0.87125295  0.18306673  0.58375567    -0.85550
O1349       O  0.92393250  0.18263931  0.63702637    -0.80410
O1350       O  0.83727446  0.28639359  0.61786383    -0.82180
O1351       O  0.96985701  0.27870877  0.59196606    -0.84930
C1352       C  0.90973228  0.18818867  0.66576953     0.95840
C1353       C  0.84289342  0.18803307  0.59896943     1.03280
O1354       O  0.90189823  0.25017807  0.60675859    -1.13910
O1355       O  0.91592946  0.27887854  0.53881014    -0.76340
O1356       O  0.91663460  0.22164753  0.53879696    -0.79830
O1357       O  0.89078890  0.21396104  0.67138188    -0.80520
C1358       C  0.91572221  0.25023777  0.52333206     0.94740
O1359       O  0.96984170  0.22148027  0.59268220    -0.78470
O1360       O  0.87164430  0.31773123  0.58475319    -0.83670
C1361       C  0.90972145  0.31232234  0.66575060     0.97370
C1362       C  0.84289584  0.31217333  0.59893575     1.03280
O1363       O  0.88973774  0.28730458  0.67080899    -0.79310
C1364       C  0.98532056  0.25012035  0.59287551     1.01580
Fe1365     Fe  0.70961590  0.41557475  0.58916066     1.65780
Fe1366     Fe  0.79877101  0.41547367  0.58907790     1.73250
Fe1367     Fe  0.75418818  0.36261237  0.64215114     1.54410
O1368       O  0.71716359  0.38595503  0.67084552    -0.83050
O1369       O  0.82133868  0.36732224  0.58385041    -0.81350
O1370       O  0.68700745  0.42087706  0.63728751    -0.85550
O1371       O  0.68670228  0.36763563  0.58457774    -0.80410
O1372       O  0.79050100  0.38682908  0.67130832    -0.82180
O1373       O  0.78278140  0.41257267  0.53876795    -0.84930
C1374       C  0.69219119  0.33894337  0.59890574     0.95840
C1375       C  0.69204447  0.40579286  0.66570249     1.03280
O1376       O  0.75419205  0.39795649  0.60672659    -1.13910
O1377       O  0.78284024  0.46588621  0.59254375    -0.76340
O1378       O  0.72560516  0.46587856  0.59200357    -0.79830
O1379       O  0.71787675  0.33340539  0.61798647    -0.80520
C1380       C  0.75419085  0.48134970  0.59283320     0.94740
O1381       O  0.72555034  0.41204521  0.53875427    -0.78470
O1382       O  0.82172119  0.42011273  0.63700505    -0.83670
C1383       C  0.81630609  0.33894129  0.59900134     0.97360
C1384       C  0.81622582  0.40584045  0.66572273     1.03280
O1385       O  0.79121338  0.33385447  0.61888333    -0.79310
C1386       C  0.75419698  0.41173794  0.52329132     1.01580
Fe1387     Fe  0.70957394  0.08489624  0.58903525     1.65780
Fe1388     Fe  0.79873198  0.08475575  0.58918493     1.73250
Fe1389     Fe  0.75415461  0.13779276  0.64207259     1.54410
O1390       O  0.71695058  0.16640060  0.61892499    -0.83050
O1391       O  0.82124463  0.07929771  0.63734910    -0.81350
O1392       O  0.68703972  0.13305319  0.58360589    -0.85550
O1393       O  0.68658550  0.08044495  0.63694944    -0.80410
O1394       O  0.79028928  0.16708157  0.61772194    -0.82180
O1395       O  0.78267903  0.03446739  0.59187678    -0.84930
C1396       C  0.69219141  0.09457543  0.66571687     0.95840
C1397       C  0.69195819  0.16137475  0.59890204     1.03280
O1398       O  0.75415287  0.10241086  0.60669399    -1.13910
O1399       O  0.78286195  0.08842568  0.53876989    -0.76340
O1400       O  0.72562973  0.08762239  0.53874684    -0.79830
O1401       O  0.71801987  0.11343921  0.67135394    -0.80520
C1402       C  0.75421906  0.08858588  0.52329185     0.94740
O1403       O  0.72544928  0.03447810  0.59267707    -0.78470
O1404       O  0.82173462  0.13266428  0.58475912    -0.83670
C1405       C  0.81633326  0.09459998  0.66566797     0.97360
C1406       C  0.81612575  0.16143721  0.59887406     1.03280
O1407       O  0.79135793  0.11464498  0.67068426    -0.79310
C1408       C  0.75409381  0.01900517  0.59283493     1.01580
Fe1409     Fe  0.79875358  0.08486820  0.91989043     1.65780
Fe1410     Fe  0.70959615  0.08474536  0.91974501     1.73250
Fe1411     Fe  0.75418264  0.13781003  0.86688684     1.54410
O1412       O  0.79130858  0.16645165  0.89012309    -0.83050
O1413       O  0.68705607  0.07941611  0.87158260    -0.81350
O1414       O  0.82133984  0.13299830  0.92524146    -0.85550
O1415       O  0.82169241  0.08032747  0.87195803    -0.80410
O1416       O  0.71797279  0.16703208  0.89119020    -0.82180
O1417       O  0.72562027  0.03444652  0.91694226    -0.84930
C1418       C  0.81614167  0.09455176  0.84322460     0.95840
C1419       C  0.81636440  0.16136532  0.91005223     1.03280
O1420       O  0.75417715  0.10240231  0.90224212    -1.13910
O1421       O  0.72549153  0.08831175  0.97016104    -0.76340
O1422       O  0.78272639  0.08768962  0.97018181    -0.79830
O1423       O  0.79039075  0.11353448  0.83763799    -0.80520
C1424       C  0.75413487  0.08857297  0.98563758     0.94740
O1425       O  0.78285070  0.03445865  0.91633503    -0.78470
O1426       O  0.68662169  0.13265971  0.92428618    -0.83670
C1427       C  0.69202133  0.09466603  0.84324331     0.97370
C1428       C  0.69218601  0.16141122  0.91011092     1.03280
O1429       O  0.71705578  0.11462976  0.83820085    -0.79310
C1430       C  0.75421001  0.01898440  0.91607785     1.01580
Fe1431     Fe  0.91944517  0.08477562  0.79906291     1.65780
Fe1432     Fe  0.91955460  0.08487376  0.70990871     1.73250
Fe1433     Fe  0.86649453  0.13776719  0.75447721     1.54420
O1434       O  0.83775071  0.11442782  0.79147684    -0.83050
O1435       O  0.92476956  0.13301900  0.68731683    -0.81350
O1436       O  0.87130547  0.07952314  0.82166016    -0.85550
O1437       O  0.92406730  0.13271633  0.82197304    -0.80410
O1438       O  0.83735935  0.11358049  0.71813302    -0.82180
O1439       O  0.96986272  0.08779675  0.72590944    -0.84930
C1440       C  0.90973465  0.16140848  0.81649296     0.95840
C1441       C  0.84288915  0.09460571  0.81660913     1.03280
O1442       O  0.90189965  0.10240130  0.75448296    -1.13910
O1443       O  0.91610553  0.03446273  0.72583872    -0.76340
O1444       O  0.91657416  0.03446343  0.78307344    -0.79830
O1445       O  0.89064264  0.16694614  0.79081704    -0.80520
C1446       C  0.91578596  0.01899391  0.75448309     0.94740
O1447       O  0.96985894  0.08827391  0.78314181    -0.78470
O1448       O  0.87162698  0.08020552  0.68696989    -0.83670
C1449       C  0.90966102  0.16142061  0.69236531     0.97370
C1450       C  0.84292618  0.09452180  0.69244046     1.03280
O1451       O  0.88981047  0.16652996  0.71747881    -0.79310
C1452       C  0.98533127  0.08861300  0.75450070     1.01580
Fe1453     Fe  0.58889663  0.08485435  0.70989723     1.65780
Fe1454     Fe  0.58876386  0.08500149  0.79904337     1.73250
Fe1455     Fe  0.64185929  0.13785164  0.75446555     1.54410
O1456       O  0.67053701  0.11457875  0.71738587    -0.83050
O1457       O  0.58345193  0.13317514  0.82156005    -0.81350
O1458       O  0.63703850  0.07953224  0.68731933    -0.85550
O1459       O  0.58434155  0.13279133  0.68696543    -0.80410
O1460       O  0.67105151  0.11356714  0.79071172    -0.82180
O1461       O  0.53845944  0.08780111  0.78301272    -0.84930
C1462       C  0.59860274  0.16151227  0.69249024     0.95840
C1463       C  0.66543073  0.09467454  0.69231751     1.03280
O1464       O  0.60643327  0.10250316  0.75446838    -1.13910
O1465       O  0.59232626  0.03457600  0.78316973    -0.76340
O1466       O  0.59172703  0.03455179  0.72593471    -0.79830
O1467       O  0.61762551  0.16708451  0.71821358    -0.80520
C1468       C  0.59260131  0.01909393  0.75453111     0.94740
O1469       O  0.53847331  0.08839257  0.72578369    -0.78470
O1470       O  0.63667226  0.08044414  0.82202308    -0.83670
C1471       C  0.59868804  0.16152361  0.81658776     0.97370
C1472       C  0.66542605  0.09462058  0.81647682     1.03280
O1473       O  0.61865047  0.16657279  0.79155437    -0.79310
C1474       C  0.52299441  0.08864698  0.75442138     1.01580
Fe1475     Fe  0.58894184  0.20563537  0.91988776     1.65780
Fe1476     Fe  0.58874852  0.29478409  0.91971373     1.73250
Fe1477     Fe  0.64185403  0.25021749  0.86687415     1.54410
O1478       O  0.67044686  0.21298525  0.88998939    -0.83050
O1479       O  0.58328132  0.31726765  0.87153249    -0.81350
O1480       O  0.63710320  0.18311315  0.92533253    -0.85550
O1481       O  0.58451040  0.18266424  0.87196442    -0.80410
O1482       O  0.67112995  0.28630510  0.89130509    -0.82180
O1483       O  0.53846457  0.27869173  0.91703624    -0.84930
C1484       C  0.59861837  0.18828429  0.84318919     0.95840
C1485       C  0.66542285  0.18801180  0.91002833     1.03280
O1486       O  0.60644190  0.25021217  0.90222612    -1.13910
O1487       O  0.59243866  0.27894653  0.97014211    -0.76340
O1488       O  0.59164773  0.22171389  0.97017987    -0.79830
O1489       O  0.61748161  0.21411558  0.83754966    -0.80520
C1490       C  0.59260461  0.25031013  0.98563020     0.94740
O1491       O  0.53851393  0.22146559  0.91623552    -0.78470
O1492       O  0.63663819  0.31782012  0.92412822    -0.83670
C1493       C  0.59866936  0.31240307  0.84325074     0.97370
C1494       C  0.66544135  0.31217808  0.91009134     1.03280
O1495       O  0.61877028  0.28746663  0.83827290    -0.79310
C1496       C  0.52301984  0.25009552  0.91608410     1.01580
Fe1497     Fe  0.58880226  0.41554511  0.70989477     1.65780
Fe1498     Fe  0.58897574  0.41565282  0.79905155     1.73250
Fe1499     Fe  0.64182122  0.36258893  0.75444562     1.54410
O1500       O  0.61849252  0.33389842  0.71739929    -0.83050
O1501       O  0.63714747  0.42089110  0.82159384    -0.81350
O1502       O  0.58350603  0.36741717  0.68728009    -0.85550
O1503       O  0.63672875  0.42015353  0.68695322    -0.80410
O1504       O  0.61761104  0.33341570  0.79075354    -0.82180
O1505       O  0.59183969  0.46596442  0.78304843    -0.84930
C1506       C  0.66543417  0.40585130  0.69245082     0.95840
C1507       C  0.59862703  0.33901870  0.69229626     1.03280
O1508       O  0.60646555  0.39800101  0.75446424    -1.13910
O1509       O  0.53855143  0.41215988  0.78316430    -0.76340
O1510       O  0.53851376  0.41266289  0.72592895    -0.79830
O1511       O  0.67099511  0.38679629  0.71814921    -0.80520
C1512       C  0.52306547  0.41183444  0.75452746     0.94740
O1513       O  0.59230538  0.46595683  0.72581623    -0.78470
O1514       O  0.58435450  0.36772764  0.82199591    -0.83670
C1515       C  0.66552187  0.40572019  0.81656920     0.97370
C1516       C  0.59860634  0.33900339  0.81648403     1.03280
O1517       O  0.67059588  0.38583270  0.79148002    -0.79310
C1518       C  0.59262679  0.48143158  0.75445645     1.01580
Fe1519     Fe  0.91951418  0.41558279  0.70992347     1.65780
Fe1520     Fe  0.91965622  0.41543747  0.79908185     1.73250
Fe1521     Fe  0.86657791  0.36258246  0.75449268     1.54420
O1522       O  0.83791862  0.38582382  0.71737297    -0.83050
O1523       O  0.92502199  0.36726706  0.82160403    -0.81350
O1524       O  0.87136983  0.42094025  0.68734368    -0.85550
O1525       O  0.92404664  0.36765293  0.68696975    -0.80410
O1526       O  0.83736422  0.38688226  0.79070434    -0.82180
O1527       O  0.96995319  0.41267618  0.78304706    -0.84930
C1528       C  0.90980952  0.33892502  0.69251318     0.95840
C1529       C  0.84299706  0.40575802  0.69232161     1.03280
O1530       O  0.90198980  0.39793416  0.75449936    -1.13910
O1531       O  0.91605420  0.46585705  0.78320578    -0.76340
O1532       O  0.91671172  0.46587743  0.72597056    -0.79830
O1533       O  0.89083785  0.33333882  0.71826989    -0.80520
C1534       C  0.91580991  0.48133519  0.75456452     0.94740
O1535       O  0.96992741  0.41201663  0.72581693    -0.78470
O1536       O  0.87174926  0.41995440  0.82206917    -0.83670
C1537       C  0.90975546  0.33893286  0.81664998     0.97360
C1538       C  0.84299313  0.40579083  0.81649758     1.03280
O1539       O  0.88977150  0.33389850  0.79162516    -0.79310
C1540       C  0.98540889  0.41179844  0.75445532     1.01580
Fe1541     Fe  0.70964225  0.41542490  0.91987022     1.65780
Fe1542     Fe  0.79878749  0.41558102  0.91972980     1.73250
Fe1543     Fe  0.75421766  0.36251575  0.86684411     1.54420
O1544       O  0.71700149  0.33391693  0.88995956    -0.83050
O1545       O  0.82128293  0.42104763  0.87156388    -0.81350
O1546       O  0.68711983  0.36726825  0.92529111    -0.85550
O1547       O  0.68667449  0.41987477  0.87194843    -0.80410
O1548       O  0.79030887  0.33321560  0.89124873    -0.82180
O1549       O  0.78272109  0.46587239  0.91704597    -0.84930
C1550       C  0.69228563  0.40576881  0.84317105     0.95840
C1551       C  0.69202946  0.33894471  0.90999625     1.03280
O1552       O  0.75421590  0.39791221  0.90221667    -1.13910
O1553       O  0.78293107  0.41189411  0.97015446    -0.76340
O1554       O  0.72569922  0.41270222  0.97016703    -0.79830
O1555       O  0.71810829  0.38689503  0.83752941    -0.80650
C1556       C  0.75428813  0.41173222  0.98563039     0.94740
O1557       O  0.72549384  0.46584567  0.91622967    -0.78470
O1558       O  0.82179669  0.36767536  0.92413421    -0.83670
C1559       C  0.81639960  0.40570383  0.84326118     0.97360
C1560       C  0.81616126  0.33888092  0.91007101     1.03280
O1561       O  0.79145152  0.38562482  0.83825511    -0.79310
C1562       C  0.75413095  0.48132772  0.91607749     1.01580
Fe1563     Fe  0.91947576  0.29472992  0.91988271     1.65780
Fe1564     Fe  0.91959409  0.20557731  0.91978297     1.73250
Fe1565     Fe  0.86653835  0.25015032  0.86687753     1.54420
O1566       O  0.83776666  0.28712241  0.89022095    -0.83050
O1567       O  0.92481947  0.18298244  0.87163989    -0.81350
O1568       O  0.87134558  0.31735384  0.92505638    -0.85550
O1569       O  0.92417337  0.31761901  0.87193549    -0.80410
O1570       O  0.83740823  0.21380421  0.89104746    -0.82180
O1571       O  0.96990091  0.22156912  0.91687296    -0.84930
C1572       C  0.90980196  0.31217117  0.84325609     0.95840
C1573       C  0.84291688  0.31227690  0.91000847     1.03280
O1574       O  0.90194096  0.25015228  0.90224789    -1.13910
O1575       O  0.91612279  0.22151214  0.97019753    -0.76340
O1576       O  0.91651851  0.27874704  0.97019709    -0.79830
O1577       O  0.89067562  0.28651775  0.83772444    -0.80520
C1578       C  0.91574354  0.25015582  0.98566783     0.94740
O1579       O  0.96988484  0.27879893  0.91646658    -0.78470
O1580       O  0.87166885  0.18264178  0.92443387    -0.83670
C1581       C  0.90970355  0.18802544  0.84324054     0.97370
C1582       C  0.84296949  0.18811823  0.91011509     1.03280
O1583       O  0.88986879  0.21315435  0.83811889    -0.79310
C1584       C  0.98536176  0.25016215  0.91610269     1.01580
Fe1585     Fe  0.58886787  0.79479873  0.08907320     1.65780
Fe1586     Fe  0.58876253  0.70564258  0.08916712     1.73250
Fe1587     Fe  0.64180978  0.75021285  0.14207690     1.54410
O1588       O  0.67061784  0.78712899  0.11867255    -0.83050
O1589       O  0.58359831  0.68303093  0.13730732    -0.81350
O1590       O  0.63699881  0.81743430  0.08393141    -0.85550
O1591       O  0.58414230  0.81768663  0.13702312    -0.80410
O1592       O  0.67089613  0.71378287  0.11797640    -0.82180
O1593       O  0.53845389  0.72161759  0.09212713    -0.84930
C1594       C  0.59856931  0.81226700  0.16568100     0.95840
C1595       C  0.66544451  0.81232584  0.09893820     1.03280
O1596       O  0.60640961  0.75021868  0.10670439    -1.13910
O1597       O  0.59217725  0.72159317  0.03875990    -0.76340
O1598       O  0.59185667  0.77882826  0.03875898    -0.79830
O1599       O  0.61773640  0.78664231  0.17118712    -0.80520
C1600       C  0.59259033  0.75023584  0.02329051     0.94740
O1601       O  0.53845254  0.77884888  0.09245721    -0.78470
O1602       O  0.63668941  0.68271941  0.08444890    -0.83670
C1603       C  0.59863988  0.68812388  0.16573764     0.97370
C1604       C  0.66536103  0.68814134  0.09884126     1.03280
O1605       O  0.61841331  0.71329512  0.17088830    -0.79310
C1606       C  0.52298273  0.75020644  0.09285793     1.01580
Fe1607     Fe  0.91941514  0.70560537  0.08910302     1.65780
Fe1608     Fe  0.91955595  0.79474955  0.08923375     1.73250
Fe1609     Fe  0.86651166  0.75018078  0.14214481     1.54420
O1610       O  0.83782888  0.71306505  0.11893055    -0.83050
O1611       O  0.92495334  0.81727279  0.13739869    -0.81350
O1612       O  0.87125297  0.68306674  0.08375564    -0.85550
O1613       O  0.92393250  0.68263930  0.13702636    -0.80410
O1614       O  0.83727447  0.78639358  0.11786380    -0.82180
O1615       O  0.96985702  0.77870878  0.09196605    -0.84930
C1616       C  0.90973229  0.68818868  0.16576952     0.95840
C1617       C  0.84289345  0.68803307  0.09896941     1.03280
O1618       O  0.90189824  0.75017808  0.10675858    -1.13910
O1619       O  0.91592946  0.77887856  0.03881014    -0.76340
O1620       O  0.91663463  0.72164755  0.03879696    -0.79830
O1621       O  0.89078891  0.71396105  0.17138187    -0.80520
C1622       C  0.91572222  0.75023779  0.02333206     0.94740
O1623       O  0.96984172  0.72148028  0.09268221    -0.78470
O1624       O  0.87164432  0.81773124  0.08475320    -0.83670
C1625       C  0.90972145  0.81232233  0.16575060     0.97370
C1626       C  0.84289585  0.81217333  0.09893575     1.03280
O1627       O  0.88973773  0.78730458  0.17080898    -0.79310
C1628       C  0.98532058  0.75012036  0.09287551     1.01580
Fe1629     Fe  0.70961591  0.91557475  0.08916066     1.65780
Fe1630     Fe  0.79877102  0.91547366  0.08907789     1.73250
Fe1631     Fe  0.75418819  0.86261237  0.14215114     1.54410
O1632       O  0.71716357  0.88595501  0.17084550    -0.83050
O1633       O  0.82133867  0.86732223  0.08385038    -0.81350
O1634       O  0.68700747  0.92087710  0.13728752    -0.85550
O1635       O  0.68670228  0.86763564  0.08457778    -0.80410
O1636       O  0.79050098  0.88682911  0.17130834    -0.82180
O1637       O  0.78278140  0.91257270  0.03876794    -0.84930
C1638       C  0.69219121  0.83894337  0.09890575     0.95840
C1639       C  0.69204447  0.90579286  0.16570249     1.03280
O1640       O  0.75419206  0.89795649  0.10672659    -1.13910
O1641       O  0.78284027  0.96588620  0.09254377    -0.76340
O1642       O  0.72560518  0.96587856  0.09200355    -0.79830
O1643       O  0.71787679  0.83340537  0.11798645    -0.80520
C1644       C  0.75419088  0.98134970  0.09283321     0.94740
O1645       O  0.72555034  0.91204519  0.03875427    -0.78470
O1646       O  0.82172121  0.92011269  0.13700504    -0.83670
C1647       C  0.81630610  0.83894130  0.09900134     0.97360
C1648       C  0.81622582  0.90584045  0.16572274     1.03280
O1649       O  0.79121342  0.83385449  0.11888337    -0.79310
C1650       C  0.75419698  0.91173794  0.02329132     1.01580
Fe1651     Fe  0.70957395  0.58489623  0.08903526     1.65780
Fe1652     Fe  0.79873199  0.58475575  0.08918492     1.73250
Fe1653     Fe  0.75415462  0.63779278  0.14207257     1.54410
O1654       O  0.71695063  0.66640064  0.11892493    -0.83050
O1655       O  0.82124465  0.57929777  0.13734909    -0.81350
O1656       O  0.68703969  0.63305317  0.08360594    -0.85550
O1657       O  0.68658553  0.58044489  0.13694946    -0.80410
O1658       O  0.79028934  0.66708155  0.11772197    -0.82180
O1659       O  0.78267906  0.53446739  0.09187682    -0.84930
C1660       C  0.69219140  0.59457544  0.16571686     0.95840
C1661       C  0.69195820  0.66137476  0.09890204     1.03280
O1662       O  0.75415288  0.60241087  0.10669398    -1.13910
O1663       O  0.78286194  0.58842564  0.03876989    -0.76340
O1664       O  0.72562971  0.58762243  0.03874685    -0.79830
O1665       O  0.71801982  0.61343929  0.17135390    -0.80520
C1666       C  0.75421904  0.58858588  0.02329185     0.94740
O1667       O  0.72544931  0.53447810  0.09267703    -0.78470
O1668       O  0.82173461  0.63266429  0.08475906    -0.83670
C1669       C  0.81633325  0.59460000  0.16566798     0.97360
C1670       C  0.81612577  0.66143720  0.09887404     1.03280
O1671       O  0.79135789  0.61464495  0.17068429    -0.79310
C1672       C  0.75409384  0.51900518  0.09283494     1.01580
Fe1673     Fe  0.79875359  0.58486820  0.41989042     1.65780
Fe1674     Fe  0.70959616  0.58474536  0.41974500     1.73250
Fe1675     Fe  0.75418265  0.63781004  0.36688684     1.54410
O1676       O  0.79130861  0.66645165  0.39012309    -0.83050
O1677       O  0.68705609  0.57941611  0.37158258    -0.81350
O1678       O  0.82133985  0.63299830  0.42524147    -0.85550
O1679       O  0.82169242  0.58032748  0.37195802    -0.80410
O1680       O  0.71797282  0.66703210  0.39119021    -0.82180
O1681       O  0.72562028  0.53444651  0.41694226    -0.84930
C1682       C  0.81614167  0.59455177  0.34322459     0.95840
C1683       C  0.81636442  0.66136531  0.41005223     1.03280
O1684       O  0.75417716  0.60240232  0.40224211    -1.13910
O1685       O  0.72549153  0.58831176  0.47016103    -0.76340
O1686       O  0.78272639  0.58768961  0.47018180    -0.79830
O1687       O  0.79039075  0.61353448  0.33763798    -0.80520
C1688       C  0.75413487  0.58857297  0.48563757     0.94740
O1689       O  0.78285071  0.53445865  0.41633501    -0.78470
O1690       O  0.68662169  0.63265971  0.42428615    -0.83670
C1691       C  0.69202133  0.59466604  0.34324330     0.97370
C1692       C  0.69218602  0.66141123  0.41011092     1.03280
O1693       O  0.71705578  0.61462979  0.33820085    -0.79310
C1694       C  0.75421002  0.51898440  0.41607785     1.01580
Fe1695     Fe  0.91944517  0.58477562  0.29906290     1.65780
Fe1696     Fe  0.91955459  0.58487376  0.20990871     1.73250
Fe1697     Fe  0.86649454  0.63776721  0.25447721     1.54420
O1698       O  0.83775072  0.61442784  0.29147684    -0.83050
O1699       O  0.92476955  0.63301899  0.18731682    -0.81350
O1700       O  0.87130548  0.57952315  0.32166016    -0.85550
O1701       O  0.92406731  0.63271633  0.32197304    -0.80410
O1702       O  0.83735935  0.61358053  0.21813301    -0.82180
O1703       O  0.96986272  0.58779675  0.22590942    -0.84930
C1704       C  0.90973466  0.66140848  0.31649297     0.95840
C1705       C  0.84288916  0.59460572  0.31660913     1.03280
O1706       O  0.90189965  0.60240131  0.25448295    -1.13910
O1707       O  0.91610552  0.53446273  0.22583872    -0.76340
O1708       O  0.91657415  0.53446343  0.28307343    -0.79830
O1709       O  0.89064266  0.66694615  0.29081705    -0.80520
C1710       C  0.91578596  0.51899390  0.25448309     0.94740
O1711       O  0.96985894  0.58827390  0.28314180    -0.78470
O1712       O  0.87162697  0.58020553  0.18696990    -0.83670
C1713       C  0.90966103  0.66142061  0.19236531     0.97370
C1714       C  0.84292617  0.59452182  0.19244047     1.03280
O1715       O  0.88981050  0.66652997  0.21747881    -0.79310
C1716       C  0.98533127  0.58861299  0.25450069     1.01580
Fe1717     Fe  0.58889663  0.58485435  0.20989723     1.65780
Fe1718     Fe  0.58876386  0.58500148  0.29904337     1.73250
Fe1719     Fe  0.64185928  0.63785164  0.25446555     1.54410
O1720       O  0.67053698  0.61457880  0.21738583    -0.83050
O1721       O  0.58345188  0.63317513  0.32156004    -0.81350
O1722       O  0.63703852  0.57953220  0.18731935    -0.85550
O1723       O  0.58434159  0.63279132  0.18696541    -0.80410
O1724       O  0.67105153  0.61356711  0.29071168    -0.82180
O1725       O  0.53845944  0.58780107  0.28301270    -0.84930
C1726       C  0.59860274  0.66151228  0.19249025     0.95840
C1727       C  0.66543072  0.59467454  0.19231750     1.03280
O1728       O  0.60643327  0.60250315  0.25446838    -1.13910
O1729       O  0.59232629  0.53457600  0.28316973    -0.76340
O1730       O  0.59172700  0.53455179  0.22593472    -0.79830
O1731       O  0.61762546  0.66708454  0.21821362    -0.80520
C1732       C  0.59260130  0.51909393  0.25453112     0.94740
O1733       O  0.53847332  0.58839260  0.22578368    -0.78470
O1734       O  0.63667225  0.58044418  0.32202308    -0.83670
C1735       C  0.59868802  0.66152359  0.31658777     0.97370
C1736       C  0.66542606  0.59462059  0.31647680     1.03280
O1737       O  0.61865048  0.66657276  0.29155440    -0.79310
C1738       C  0.52299441  0.58864697  0.25442137     1.01580
Fe1739     Fe  0.58894184  0.70563536  0.41988776     1.65780
Fe1740     Fe  0.58874852  0.79478408  0.41971374     1.73250
Fe1741     Fe  0.64185403  0.75021749  0.36687415     1.54410
O1742       O  0.67044689  0.71298530  0.38998943    -0.83050
O1743       O  0.58328138  0.81726767  0.37153250    -0.81350
O1744       O  0.63710319  0.68311312  0.42533247    -0.85550
O1745       O  0.58451033  0.68266425  0.37196442    -0.80410
O1746       O  0.67112992  0.78630514  0.39130504    -0.82180
O1747       O  0.53846457  0.77869174  0.41703620    -0.84930
C1748       C  0.59861836  0.68828427  0.34318920     0.95840
C1749       C  0.66542286  0.68801180  0.41002832     1.03280
O1750       O  0.60644190  0.75021216  0.40222612    -1.13910
O1751       O  0.59243861  0.77894650  0.47014212    -0.76340
O1752       O  0.59164777  0.72171386  0.47017987    -0.79830
O1753       O  0.61748166  0.71411552  0.33754970    -0.80520
C1754       C  0.59260461  0.75031010  0.48563020     0.94740
O1755       O  0.53851393  0.72146561  0.41623557    -0.78470
O1756       O  0.63663820  0.81782009  0.42412828    -0.83670
C1757       C  0.59866936  0.81240305  0.34325073     0.97370
C1758       C  0.66544134  0.81217809  0.41009134     1.03280
O1759       O  0.61877023  0.78746657  0.33827286    -0.79310
C1760       C  0.52301984  0.75009553  0.41608411     1.01580
Fe1761     Fe  0.58880225  0.91554512  0.20989477     1.65780
Fe1762     Fe  0.58897573  0.91565282  0.29905155     1.73250
Fe1763     Fe  0.64182122  0.86258893  0.25444562     1.54410
O1764       O  0.61849253  0.83389843  0.21739928    -0.83050
O1765       O  0.63714746  0.92089111  0.32159385    -0.81350
O1766       O  0.58350601  0.86741718  0.18728009    -0.85550
O1767       O  0.63672874  0.92015354  0.18695321    -0.80410
O1768       O  0.61761103  0.83341569  0.29075352    -0.82180
O1769       O  0.59183968  0.96596442  0.28304844    -0.84930
C1770       C  0.66543417  0.90585131  0.19245082     0.95840
C1771       C  0.59862703  0.83901872  0.19229625     1.03280
O1772       O  0.60646555  0.89800101  0.25446424    -1.13910
O1773       O  0.53855143  0.91215986  0.28316431    -0.76340
O1774       O  0.53851375  0.91266290  0.22592895    -0.79830
O1775       O  0.67099511  0.88679631  0.21814922    -0.80520
C1776       C  0.52306546  0.91183444  0.25452746     0.94740
O1777       O  0.59230538  0.96595684  0.22581624    -0.78470
O1778       O  0.58435451  0.86772763  0.32199591    -0.83670
C1779       C  0.66552186  0.90572018  0.31656921     0.97370
C1780       C  0.59860634  0.83900337  0.31648402     1.03280
O1781       O  0.67059586  0.88583269  0.29148003    -0.79310
C1782       C  0.59262678  0.98143158  0.25445647     1.01580
Fe1783     Fe  0.91951418  0.91558278  0.20992347     1.65780
Fe1784     Fe  0.91965622  0.91543746  0.29908185     1.73250
Fe1785     Fe  0.86657792  0.86258244  0.25449268     1.54420
O1786       O  0.83791866  0.88582375  0.21737292    -0.83050
O1787       O  0.92502204  0.86726705  0.32160401    -0.81350
O1788       O  0.87136981  0.92094029  0.18734371    -0.85550
O1789       O  0.92404658  0.86765294  0.18696973    -0.80410
O1790       O  0.83736418  0.88688227  0.29070429    -0.82180
O1791       O  0.96995318  0.91267622  0.28304705    -0.84930
C1792       C  0.90980953  0.83892501  0.19251319     0.95840
C1793       C  0.84299707  0.90575801  0.19232160     1.03280
O1794       O  0.90198980  0.89793414  0.25449936    -1.13910
O1795       O  0.91605415  0.96585704  0.28320580    -0.76340
O1796       O  0.91671175  0.96587743  0.22597058    -0.79830
O1797       O  0.89083791  0.83333877  0.21826994    -0.80520
C1798       C  0.91580990  0.98133519  0.25456453     0.94740
O1799       O  0.96992741  0.91201659  0.22581692    -0.78470
O1800       O  0.87174925  0.91995433  0.32206918    -0.83670
C1801       C  0.90975547  0.83893286  0.31664999     0.97360
C1802       C  0.84299311  0.90579080  0.31649756     1.03280
O1803       O  0.88977147  0.83389851  0.29162520    -0.79310
C1804       C  0.98540889  0.91179844  0.25445532     1.01580
Fe1805     Fe  0.70964226  0.91542491  0.41987022     1.65780
Fe1806     Fe  0.79878749  0.91558101  0.41972979     1.73250
Fe1807     Fe  0.75421765  0.86251573  0.36684412     1.54420
O1808       O  0.71700153  0.83391690  0.38995963    -0.83050
O1809       O  0.82128294  0.92104757  0.37156387    -0.81350
O1810       O  0.68711981  0.86726827  0.42529108    -0.85550
O1811       O  0.68667451  0.91987481  0.37194842    -0.80410
O1812       O  0.79030891  0.83321561  0.39124870    -0.82180
O1813       O  0.78272111  0.96587239  0.41704593    -0.84930
C1814       C  0.69228561  0.90576881  0.34317106     0.95840
C1815       C  0.69202946  0.83894471  0.40999627     1.03280
O1816       O  0.75421590  0.89791220  0.40221667    -1.13910
O1817       O  0.78293108  0.91189414  0.47015446    -0.76340
O1818       O  0.72569922  0.91270220  0.47016703    -0.79830
O1819       O  0.71810823  0.88689496  0.33752945    -0.80650
C1820       C  0.75428813  0.91173222  0.48563039     0.94740
O1821       O  0.72549387  0.96584567  0.41622969    -0.78470
O1822       O  0.82179668  0.86767535  0.42413425    -0.83670
C1823       C  0.81639957  0.90570380  0.34326115     0.97360
C1824       C  0.81616128  0.83888092  0.41007101     1.03280
O1825       O  0.79145147  0.88562483  0.33825507    -0.79310
C1826       C  0.75413098  0.98132772  0.41607747     1.01580
Fe1827     Fe  0.91947578  0.79472992  0.41988272     1.65780
Fe1828     Fe  0.91959410  0.70557731  0.41978299     1.73250
Fe1829     Fe  0.86653836  0.75015031  0.36687754     1.54420
O1830       O  0.83776668  0.78712240  0.39022097    -0.83050
O1831       O  0.92481948  0.68298244  0.37163990    -0.81350
O1832       O  0.87134560  0.81735385  0.42505638    -0.85550
O1833       O  0.92417340  0.81761901  0.37193551    -0.80410
O1834       O  0.83740825  0.71380420  0.39104747    -0.82180
O1835       O  0.96990092  0.72156912  0.41687297    -0.84930
C1836       C  0.90980197  0.81217117  0.34325611     0.95840
C1837       C  0.84291689  0.81227690  0.41000848     1.03280
O1838       O  0.90194098  0.75015228  0.40224791    -1.13910
O1839       O  0.91612280  0.72151214  0.47019754    -0.76340
O1840       O  0.91651852  0.77874704  0.47019710    -0.79830
O1841       O  0.89067563  0.78651775  0.33772446    -0.80520
C1842       C  0.91574355  0.75015582  0.48566784     0.94740
O1843       O  0.96988485  0.77879893  0.41646660    -0.78470
O1844       O  0.87166887  0.68264178  0.42443389    -0.83670
C1845       C  0.90970356  0.68802544  0.34324055     0.97370
C1846       C  0.84296951  0.68811822  0.41011510     1.03280
O1847       O  0.88986881  0.71315435  0.33811890    -0.79310
C1848       C  0.98536177  0.75016214  0.41610271     1.01580
Fe1849     Fe  0.58886786  0.79479873  0.58907320     1.65780
Fe1850     Fe  0.58876251  0.70564257  0.58916712     1.73250
Fe1851     Fe  0.64180977  0.75021284  0.64207688     1.54410
O1852       O  0.67061778  0.78712905  0.61867259    -0.83050
O1853       O  0.58359823  0.68303095  0.63730733    -0.81350
O1854       O  0.63699881  0.81743428  0.58393133    -0.85550
O1855       O  0.58414236  0.81768665  0.63702311    -0.80410
O1856       O  0.67089616  0.71378292  0.61797632    -0.82180
O1857       O  0.53845387  0.72161761  0.59212707    -0.84930
C1858       C  0.59856932  0.81226698  0.66568101     0.95840
C1859       C  0.66544448  0.81232586  0.59893819     1.03280
O1860       O  0.60640960  0.75021868  0.60670438    -1.13910
O1861       O  0.59217729  0.72159315  0.53875990    -0.76340
O1862       O  0.59185660  0.77882824  0.53875897    -0.79830
O1863       O  0.61773635  0.78664224  0.67118716    -0.80520
C1864       C  0.59259031  0.75023582  0.52329051     0.94740
O1865       O  0.53845253  0.77884890  0.59245727    -0.78470
O1866       O  0.63668938  0.68271938  0.58444896    -0.83670
C1867       C  0.59863987  0.68812386  0.66573761     0.97370
C1868       C  0.66536103  0.68814135  0.59884126     1.03280
O1869       O  0.61841337  0.71329505  0.67088824    -0.79310
C1870       C  0.52298272  0.75020645  0.59285793     1.01580
Fe1871     Fe  0.91941513  0.70560537  0.58910303     1.65780
Fe1872     Fe  0.91955593  0.79474955  0.58923376     1.73250
Fe1873     Fe  0.86651165  0.75018078  0.64214483     1.54420
O1874       O  0.83782885  0.71306508  0.61893055    -0.83050
O1875       O  0.92495329  0.81727281  0.63739869    -0.81350
O1876       O  0.87125296  0.68306673  0.58375569    -0.85550
O1877       O  0.92393253  0.68263932  0.63702637    -0.80410
O1878       O  0.83727447  0.78639361  0.61786385    -0.82180
O1879       O  0.96985700  0.77870880  0.59196608    -0.84930
C1880       C  0.90973229  0.68818867  0.66576952     0.95840
C1881       C  0.84289342  0.68803308  0.59896943     1.03280
O1882       O  0.90189822  0.75017808  0.60675859    -1.13910
O1883       O  0.91592947  0.77887856  0.53881015    -0.76340
O1884       O  0.91663459  0.72164754  0.53879697    -0.79830
O1885       O  0.89078888  0.71396102  0.67138187    -0.80520
C1886       C  0.91572220  0.75023779  0.52333207     0.94740
O1887       O  0.96984170  0.72148030  0.59268219    -0.78470
O1888       O  0.87164429  0.81773123  0.58475318    -0.83670
C1889       C  0.90972144  0.81232233  0.66575062     0.97370
C1890       C  0.84289583  0.81217333  0.59893576     1.03280
O1891       O  0.88973775  0.78730456  0.67080902    -0.79310
C1892       C  0.98532056  0.75012038  0.59287551     1.01580
Fe1893     Fe  0.70961590  0.91557475  0.58916065     1.65780
Fe1894     Fe  0.79877102  0.91547367  0.58907790     1.73250
Fe1895     Fe  0.75418818  0.86261238  0.64215113     1.54410
O1896       O  0.71716362  0.88595507  0.67084553    -0.83050
O1897       O  0.82133868  0.86732225  0.58385044    -0.81350
O1898       O  0.68700743  0.92087704  0.63728750    -0.85550
O1899       O  0.68670228  0.86763563  0.58457771    -0.80410
O1900       O  0.79050103  0.88682906  0.67130830    -0.82180
O1901       O  0.78278141  0.91257266  0.53876794    -0.84930
C1902       C  0.69219118  0.83894339  0.59890573     0.95840
C1903       C  0.69204447  0.90579286  0.66570249     1.03280
O1904       O  0.75419206  0.89795650  0.60672658    -1.13910
O1905       O  0.78284024  0.96588621  0.59254373    -0.76340
O1906       O  0.72560516  0.96587857  0.59200359    -0.79830
O1907       O  0.71787672  0.83340542  0.61798650    -0.80520
C1908       C  0.75419085  0.98134970  0.59283320     0.94740
O1909       O  0.72555035  0.91204524  0.53875426    -0.78470
O1910       O  0.82172118  0.92011276  0.63700505    -0.83670
C1911       C  0.81630608  0.83894129  0.59900134     0.97360
C1912       C  0.81622583  0.90584046  0.66572272     1.03280
O1913       O  0.79121335  0.83385446  0.61888331    -0.79310
C1914       C  0.75419699  0.91173795  0.52329131     1.01580
Fe1915     Fe  0.70957395  0.58489624  0.58903526     1.65780
Fe1916     Fe  0.79873199  0.58475575  0.58918493     1.73250
Fe1917     Fe  0.75415462  0.63779277  0.64207258     1.54410
O1918       O  0.71695057  0.66640061  0.61892500    -0.83050
O1919       O  0.82124462  0.57929771  0.63734910    -0.81350
O1920       O  0.68703972  0.63305320  0.58360589    -0.85550
O1921       O  0.68658551  0.58044497  0.63694945    -0.80410
O1922       O  0.79028927  0.66708158  0.61772193    -0.82180
O1923       O  0.78267903  0.53446739  0.59187677    -0.84930
C1924       C  0.69219142  0.59457544  0.66571688     0.95840
C1925       C  0.69195819  0.66137476  0.59890205     1.03280
O1926       O  0.75415287  0.60241087  0.60669399    -1.13910
O1927       O  0.78286196  0.58842569  0.53876989    -0.76340
O1928       O  0.72562973  0.58762239  0.53874684    -0.79830
O1929       O  0.71801989  0.61343922  0.67135395    -0.80520
C1930       C  0.75421906  0.58858588  0.52329185     0.94740
O1931       O  0.72544929  0.53447811  0.59267707    -0.78470
O1932       O  0.82173462  0.63266428  0.58475913    -0.83670
C1933       C  0.81633327  0.59460000  0.66566797     0.97360
C1934       C  0.81612575  0.66143722  0.59887406     1.03280
O1935       O  0.79135794  0.61464500  0.67068426    -0.79310
C1936       C  0.75409382  0.51900518  0.59283494     1.01580
Fe1937     Fe  0.79875358  0.58486820  0.91989043     1.65780
Fe1938     Fe  0.70959615  0.58474536  0.91974500     1.73250
Fe1939     Fe  0.75418264  0.63781003  0.86688684     1.54410
O1940       O  0.79130861  0.66645163  0.89012307    -0.83050
O1941       O  0.68705608  0.57941608  0.87158259    -0.81350
O1942       O  0.82133983  0.63299830  0.92524149    -0.85550
O1943       O  0.82169242  0.58032749  0.87195803    -0.80410
O1944       O  0.71797282  0.66703209  0.89119022    -0.82180
O1945       O  0.72562028  0.53444652  0.91694228    -0.84930
C1946       C  0.81614167  0.59455175  0.84322459     0.95840
C1947       C  0.81636441  0.66136531  0.91005223     1.03280
O1948       O  0.75417715  0.60240231  0.90224212    -1.13910
O1949       O  0.72549152  0.58831177  0.97016104    -0.76340
O1950       O  0.78272638  0.58768960  0.97018181    -0.79830
O1951       O  0.79039073  0.61353445  0.83763797    -0.80520
C1952       C  0.75413486  0.58857297  0.98563758     0.94740
O1953       O  0.78285070  0.53445865  0.91633501    -0.78470
O1954       O  0.68662168  0.63265971  0.92428615    -0.83670
C1955       C  0.69202132  0.59466602  0.84324332     0.97370
C1956       C  0.69218602  0.66141122  0.91011092     1.03280
O1957       O  0.71705576  0.61462978  0.83820087    -0.79310
C1958       C  0.75421002  0.51898440  0.91607786     1.01580
Fe1959     Fe  0.91944516  0.58477562  0.79906290     1.65780
Fe1960     Fe  0.91955461  0.58487377  0.70990871     1.73250
Fe1961     Fe  0.86649453  0.63776720  0.75447721     1.54420
O1962       O  0.83775072  0.61442785  0.79147686    -0.83050
O1963       O  0.92476960  0.63301901  0.68731685    -0.81350
O1964       O  0.87130546  0.57952312  0.82166014    -0.85550
O1965       O  0.92406726  0.63271632  0.82197304    -0.80410
O1966       O  0.83735934  0.61358046  0.71813304    -0.82180
O1967       O  0.96986273  0.58779673  0.72590945    -0.84930
C1968       C  0.90973464  0.66140849  0.81649295     0.95840
C1969       C  0.84288915  0.59460571  0.81660913     1.03280
O1970       O  0.90189965  0.60240130  0.75448295    -1.13910
O1971       O  0.91610551  0.53446273  0.72583871    -0.76340
O1972       O  0.91657418  0.53446343  0.78307342    -0.79830
O1973       O  0.89064266  0.66694616  0.79081701    -0.80520
C1974       C  0.91578596  0.51899391  0.75448307     0.94740
O1975       O  0.96985894  0.58827393  0.78314182    -0.78470
O1976       O  0.87162699  0.58020556  0.68696988    -0.83670
C1977       C  0.90966103  0.66142060  0.69236530     0.97370
C1978       C  0.84292618  0.59452181  0.69244046     1.03280
O1979       O  0.88981045  0.66652994  0.71747878    -0.79310
C1980       C  0.98533127  0.58861300  0.75450072     1.01580
Fe1981     Fe  0.58889663  0.58485436  0.70989722     1.65780
Fe1982     Fe  0.58876386  0.58500148  0.79904336     1.73250
Fe1983     Fe  0.64185929  0.63785164  0.75446555     1.54410
O1984       O  0.67053704  0.61457872  0.71738590    -0.83050
O1985       O  0.58345197  0.63317512  0.82156006    -0.81350
O1986       O  0.63703850  0.57953229  0.68731932    -0.85550
O1987       O  0.58434150  0.63279133  0.68696543    -0.80410
O1988       O  0.67105148  0.61356718  0.79071176    -0.82180
O1989       O  0.53845944  0.58780114  0.78301272    -0.84930
C1990       C  0.59860273  0.66151226  0.69249022     0.95840
C1991       C  0.66543074  0.59467454  0.69231752     1.03280
O1992       O  0.60643327  0.60250316  0.75446838    -1.13910
O1993       O  0.59232623  0.53457600  0.78316971    -0.76340
O1994       O  0.59172707  0.53455179  0.72593469    -0.79830
O1995       O  0.61762554  0.66708449  0.71821354    -0.80520
C1996       C  0.59260131  0.51909393  0.75453109     0.94740
O1997       O  0.53847331  0.58839254  0.72578370    -0.78470
O1998       O  0.63667227  0.58044410  0.82202306    -0.83670
C1999       C  0.59868803  0.66152361  0.81658774     0.97370
C2000       C  0.66542604  0.59462058  0.81647682     1.03280
O2001       O  0.61865042  0.66657282  0.79155432    -0.79310
C2002       C  0.52299441  0.58864697  0.75442138     1.01580
Fe2003     Fe  0.58894185  0.70563537  0.91988776     1.65780
Fe2004     Fe  0.58874852  0.79478408  0.91971373     1.73250
Fe2005     Fe  0.64185403  0.75021749  0.86687414     1.54410
O2006       O  0.67044685  0.71298524  0.88998936    -0.83050
O2007       O  0.58328130  0.81726764  0.87153249    -0.81350
O2008       O  0.63710321  0.68311315  0.92533253    -0.85550
O2009       O  0.58451041  0.68266423  0.87196442    -0.80410
O2010       O  0.67112996  0.78630508  0.89130509    -0.82180
O2011       O  0.53846457  0.77869172  0.91703625    -0.84930
C2012       C  0.59861837  0.68828430  0.84318918     0.95840
C2013       C  0.66542285  0.68801179  0.91002832     1.03280
O2014       O  0.60644190  0.75021217  0.90222611    -1.13910
O2015       O  0.59243867  0.77894652  0.97014211    -0.76340
O2016       O  0.59164772  0.72171389  0.97017987    -0.79830
O2017       O  0.61748160  0.71411559  0.83754965    -0.80520
C2018       C  0.59260462  0.75031012  0.98563020     0.94740
O2019       O  0.53851393  0.72146558  0.91623551    -0.78470
O2020       O  0.63663818  0.81782011  0.92412821    -0.83670
C2021       C  0.59866935  0.81240307  0.84325075     0.97370
C2022       C  0.66544135  0.81217807  0.91009134     1.03280
O2023       O  0.61877028  0.78746664  0.83827291    -0.79310
C2024       C  0.52301985  0.75009551  0.91608410     1.01580
Fe2025     Fe  0.58880226  0.91554511  0.70989477     1.65780
Fe2026     Fe  0.58897573  0.91565282  0.79905155     1.73250
Fe2027     Fe  0.64182122  0.86258892  0.75444563     1.54410
O2028       O  0.61849249  0.83389839  0.71739932    -0.83050
O2029       O  0.63714746  0.92089107  0.82159386    -0.81350
O2030       O  0.58350606  0.86741718  0.68728007    -0.85550
O2031       O  0.63672876  0.92015356  0.68695323    -0.80410
O2032       O  0.61761106  0.83341571  0.79075357    -0.82180
O2033       O  0.59183972  0.96596442  0.78304845    -0.84930
C2034       C  0.66543417  0.90585130  0.69245082     0.95840
C2035       C  0.59862704  0.83901869  0.69229627     1.03280
O2036       O  0.60646555  0.89800101  0.75446424    -1.13910
O2037       O  0.53855143  0.91215990  0.78316429    -0.76340
O2038       O  0.53851376  0.91266287  0.72592894    -0.79830
O2039       O  0.67099509  0.88679626  0.71814919    -0.80520
C2040       C  0.52306547  0.91183444  0.75452745     0.94740
O2041       O  0.59230536  0.96595684  0.72581625    -0.78470
O2042       O  0.58435447  0.86772764  0.82199591    -0.83670
C2043       C  0.66552187  0.90572018  0.81656919     0.97370
C2044       C  0.59860633  0.83900339  0.81648403     1.03280
O2045       O  0.67059589  0.88583272  0.79148000    -0.79310
C2046       C  0.59262679  0.98143158  0.75445647     1.01580
Fe2047     Fe  0.91951418  0.91558279  0.70992347     1.65780
Fe2048     Fe  0.91965623  0.91543747  0.79908185     1.73250
Fe2049     Fe  0.86657791  0.86258246  0.75449269     1.54420
O2050       O  0.83791866  0.88582378  0.71737292    -0.83050
O2051       O  0.92502206  0.86726705  0.82160401    -0.81350
O2052       O  0.87136982  0.92094031  0.68734371    -0.85550
O2053       O  0.92404657  0.86765294  0.68696973    -0.80410
O2054       O  0.83736418  0.88688231  0.79070429    -0.82180
O2055       O  0.96995319  0.91267623  0.78304704    -0.84930
C2056       C  0.90980952  0.83892501  0.69251320     0.95840
C2057       C  0.84299707  0.90575803  0.69232159     1.03280
O2058       O  0.90198980  0.89793416  0.75449936    -1.13910
O2059       O  0.91605416  0.96585705  0.78320580    -0.76340
O2060       O  0.91671177  0.96587743  0.72597058    -0.79830
O2061       O  0.89083789  0.83333878  0.71826995    -0.80520
C2062       C  0.91580991  0.98133519  0.75456454     0.94740
O2063       O  0.96992741  0.91201658  0.72581691    -0.78470
O2064       O  0.87174927  0.91995434  0.82206920    -0.83670
C2065       C  0.90975547  0.83893287  0.81664999     0.97360
C2066       C  0.84299312  0.90579082  0.81649757     1.03280
O2067       O  0.88977145  0.83389854  0.79162522    -0.79310
C2068       C  0.98540889  0.91179844  0.75445531     1.01580
Fe2069     Fe  0.70964225  0.91542489  0.91987022     1.65780
Fe2070     Fe  0.79878749  0.91558101  0.91972980     1.73250
Fe2071     Fe  0.75421766  0.86251574  0.86684411     1.54420
O2072       O  0.71700151  0.83391691  0.88995958    -0.83050
O2073       O  0.82128293  0.92104761  0.87156387    -0.81350
O2074       O  0.68711983  0.86726825  0.92529109    -0.85550
O2075       O  0.68667450  0.91987477  0.87194842    -0.80410
O2076       O  0.79030889  0.83321560  0.89124872    -0.82180
O2077       O  0.78272109  0.96587239  0.91704596    -0.84930
C2078       C  0.69228562  0.90576880  0.84317105     0.95840
C2079       C  0.69202947  0.83894470  0.90999625     1.03280
O2080       O  0.75421589  0.89791220  0.90221667    -1.13910
O2081       O  0.78293107  0.91189411  0.97015446    -0.76340
O2082       O  0.72569921  0.91270220  0.97016703    -0.79830
O2083       O  0.71810827  0.88689499  0.83752942    -0.80650
C2084       C  0.75428812  0.91173221  0.98563039     0.94740
O2085       O  0.72549384  0.96584566  0.91622968    -0.78470
O2086       O  0.82179669  0.86767535  0.92413422    -0.83670
C2087       C  0.81639959  0.90570381  0.84326117     0.97360
C2088       C  0.81616127  0.83888092  0.91007101     1.03280
O2089       O  0.79145151  0.88562482  0.83825509    -0.79310
C2090       C  0.75413095  0.98132772  0.91607748     1.01580
Fe2091     Fe  0.91947578  0.79472991  0.91988271     1.65780
Fe2092     Fe  0.91959409  0.70557730  0.91978298     1.73250
Fe2093     Fe  0.86653835  0.75015032  0.86687753     1.54420
O2094       O  0.83776665  0.78712237  0.89022099    -0.83050
O2095       O  0.92481943  0.68298242  0.87163990    -0.81350
O2096       O  0.87134560  0.81735386  0.92505634    -0.85550
O2097       O  0.92417343  0.81761899  0.87193549    -0.80410
O2098       O  0.83740825  0.71380417  0.89104743    -0.82180
O2099       O  0.96990091  0.72156910  0.91687293    -0.84930
C2100       C  0.90980197  0.81217118  0.84325610     0.95840
C2101       C  0.84291689  0.81227689  0.91000847     1.03280
O2102       O  0.90194097  0.75015227  0.90224789    -1.13910
O2103       O  0.91612283  0.72151215  0.97019753    -0.76340
O2104       O  0.91651849  0.77874705  0.97019709    -0.79830
O2105       O  0.89067559  0.78651779  0.83772447    -0.80520
C2106       C  0.91574356  0.75015583  0.98566783     0.94740
O2107       O  0.96988485  0.77879890  0.91646661    -0.78470
O2108       O  0.87166885  0.68264179  0.92443391    -0.83670
C2109       C  0.90970354  0.68802545  0.84324053     0.97370
C2110       C  0.84296950  0.68811822  0.91011510     1.03280
O2111       O  0.88986882  0.71315438  0.83811887    -0.79310
C2112       C  0.98536177  0.75016212  0.91610269     1.01580
loop_ 
_geom_bond_atom_site_label_1 
_geom_bond_atom_site_label_2 
_geom_bond_distance 
_geom_bond_site_symmetry_2 
_ccdc_geom_bond_type 
Fe1          O17   2.068       .  S
Fe1           O7   2.082       .  S
Fe1          O14   2.063       .  S
Fe1           O6   2.085       .  S
Fe1          O12   1.992       .  S
Fe2           O5   2.085       .  S
Fe2           O9   2.063       .  S
Fe2          O13   2.068       .  S
Fe2          O18   2.082       .  S
Fe2          O12   1.992       .  S
Fe3          O21   2.043       .  S
Fe3           O8   2.048       .  S
Fe3          O15   2.048       .  S
Fe3           O4   2.043       .  S
Fe3          O12   1.953       .  S
O4           C11   1.265       .  A
O5           C19   1.271       .  A
O6           C11   1.271       .  A
O7           C10   1.270       .  A
O8           C20   1.267       .  A
O9           C22   1.269       .  A
C10          O15   1.267       .  A
C10         C187   1.473       .  S
C11          C54   1.473       .  S
O13          C16   1.271       .  A
O14          C16   1.269       .  A
C16         C434   1.470   1_554  S
O17          C22   1.271       .  A
O18          C20   1.270       .  A
C19          O21   1.265       .  A
C19         C142   1.473       .  S
C20          C77   1.473       .  S
C22        C1100   1.470   1_455  S
Fe23         O39   2.068       .  S
Fe23         O29   2.081       .  S
Fe23         O36   2.064       .  S
Fe23         O28   2.086       .  S
Fe23         O34   1.992       .  S
Fe24         O27   2.086       .  S
Fe24         O31   2.063       .  S
Fe24         O35   2.068       .  S
Fe24         O40   2.081       .  S
Fe24         O34   1.992       .  S
Fe25         O43   2.043       .  S
Fe25         O30   2.049       .  S
Fe25         O37   2.049       .  S
Fe25         O26   2.043       .  S
Fe25         O34   1.953       .  S
O26          C33   1.265       .  A
O27          C41   1.271       .  A
O28          C33   1.271       .  A
O29          C32   1.270       .  A
O30          C42   1.267       .  A
O31          C44   1.269       .  A
C32          O37   1.267       .  A
C32         C129   1.473       .  S
C33          C86   1.473       .  S
O35          C38   1.271       .  A
O36          C38   1.269       .  A
C38         C522   1.470   1_554  S
O39          C44   1.271       .  A
O40          C42   1.270       .  A
C41          O43   1.265       .  A
C41         C208   1.473       .  S
C42          C63   1.472       .  S
C44        C1078   1.470       .  S
Fe45         O61   2.068       .  S
Fe45         O51   2.081       .  S
Fe45         O58   2.063       .  S
Fe45         O50   2.085       .  S
Fe45         O56   1.992       .  S
Fe46         O49   2.085       .  S
Fe46         O53   2.063       .  S
Fe46         O57   2.068       .  S
Fe46         O62   2.082       .  S
Fe46         O56   1.992       .  S
Fe47         O65   2.043       .  S
Fe47         O52   2.048       .  S
Fe47         O59   2.049       .  S
Fe47         O48   2.043       .  S
Fe47         O56   1.953       .  S
O48          C55   1.265       .  A
O49          C63   1.271       .  A
O50          C55   1.271       .  A
O51          C54   1.270       .  A
O52          C64   1.267       .  A
O53          C66   1.269       .  A
C54          O59   1.267       .  A
C55         C186   1.473       .  S
O57          C60   1.271       .  A
O58          C60   1.269       .  A
C60         C616   1.470       .  S
O61          C66   1.271       .  A
O62          C64   1.270       .  A
C63          O65   1.265       .  A
C64         C209   1.473       .  S
C66         C500   1.470   1_554  S
Fe67         O83   2.068       .  S
Fe67         O73   2.081       .  S
Fe67         O80   2.063       .  S
Fe67         O72   2.086       .  S
Fe67         O78   1.992       .  S
Fe68         O71   2.086       .  S
Fe68         O75   2.063       .  S
Fe68         O79   2.068       .  S
Fe68         O84   2.081       .  S
Fe68         O78   1.992       .  S
Fe69         O87   2.042       .  S
Fe69         O74   2.049       .  S
Fe69         O81   2.049       .  S
Fe69         O70   2.042       .  S
Fe69         O78   1.953       .  S
O70          C77   1.265       .  A
O71          C85   1.271       .  A
O72          C77   1.271       .  A
O73          C76   1.270       .  A
O74          C86   1.267       .  A
O75          C88   1.269       .  A
C76          O81   1.267       .  A
C76         C143   1.473       .  S
O79          C82   1.271       .  A
O80          C82   1.269       .  A
C82         C368   1.470   1_554  S
O83          C88   1.271       .  A
O84          C86   1.270       .  A
C85          O87   1.265       .  A
C85         C130   1.473       .  S
C88         C588   1.470   1_545  S
Fe89        O105   2.068       .  S
Fe89         O95   2.081       .  S
Fe89        O102   2.063       .  S
Fe89         O94   2.085       .  S
Fe89        O100   1.992       .  S
Fe90         O93   2.086       .  S
Fe90         O97   2.063       .  S
Fe90        O101   2.068       .  S
Fe90        O106   2.081       .  S
Fe90        O100   1.992       .  S
Fe91        O109   2.042       .  S
Fe91         O96   2.049       .  S
Fe91        O103   2.049       .  S
Fe91         O92   2.042       .  S
Fe91        O100   1.953       .  S
O92          C99   1.265       .  A
O93         C107   1.271       .  A
O94          C99   1.271       .  A
O95          C98   1.270       .  A
O96         C108   1.267       .  A
O97         C110   1.269       .  A
C98         O103   1.267       .  A
C98         C121   1.473       .  S
C99         C262   1.472       .  S
O101        C104   1.271       .  A
O102        C104   1.269       .  A
C104        C346   1.470       .  S
O105        C110   1.271       .  A
O106        C108   1.270       .  A
C107        O109   1.265       .  A
C107        C152   1.473       .  S
C108        C165   1.473       .  S
C110        C770   1.470   1_545  S
Fe111       O127   2.068       .  S
Fe111       O117   2.081       .  S
Fe111       O124   2.063       .  S
Fe111       O116   2.086       .  S
Fe111       O122   1.992       .  S
Fe112       O115   2.085       .  S
Fe112       O119   2.063       .  S
Fe112       O123   2.068       .  S
Fe112       O128   2.082       .  S
Fe112       O122   1.992       .  S
Fe113       O131   2.043       .  S
Fe113       O118   2.048       .  S
Fe113       O125   2.048       .  S
Fe113       O114   2.043       .  S
Fe113       O122   1.953       .  S
O114        C121   1.265       .  A
O115        C129   1.271       .  A
O116        C121   1.271       .  A
O117        C120   1.270       .  A
O118        C130   1.267       .  A
O119        C132   1.269       .  A
C120        O125   1.267       .  A
C120        C261   1.473       .  S
O123        C126   1.271       .  A
O124        C126   1.269       .  A
C126        C742   1.470   1_545  S
O127        C132   1.271       .  A
O128        C130   1.270       .  A
C129        O131   1.265       .  A
C132       C1210   1.470       .  S
Fe133       O149   2.068       .  S
Fe133       O139   2.081       .  S
Fe133       O146   2.063       .  S
Fe133       O138   2.086       .  S
Fe133       O144   1.992       .  S
Fe134       O137   2.086       .  S
Fe134       O141   2.063       .  S
Fe134       O145   2.068       .  S
Fe134       O150   2.081       .  S
Fe134       O144   1.992       .  S
Fe135       O153   2.043       .  S
Fe135       O140   2.049       .  S
Fe135       O147   2.049       .  S
Fe135       O136   2.043       .  S
Fe135       O144   1.953       .  S
O136        C143   1.265       .  A
O137        C151   1.271       .  A
O138        C143   1.271       .  A
O139        C142   1.270       .  A
O140        C152   1.267       .  A
O141        C154   1.269       .  A
C142        O147   1.267       .  A
O145        C148   1.271       .  A
O146        C148   1.269       .  A
C148        C726   1.470   1_545  S
O149        C154   1.271       .  A
O150        C152   1.270       .  A
C151        O153   1.265       .  A
C151        C164   1.473       .  S
C154       C1188   1.470   1_455  S
Fe155       O171   2.068       .  S
Fe155       O161   2.081       .  S
Fe155       O168   2.063       .  S
Fe155       O160   2.086       .  S
Fe155       O166   1.992       .  S
Fe156       O159   2.086       .  S
Fe156       O163   2.063       .  S
Fe156       O167   2.068       .  S
Fe156       O172   2.081       .  S
Fe156       O166   1.992       .  S
Fe157       O175   2.042       .  S
Fe157       O162   2.049       .  S
Fe157       O169   2.049       .  S
Fe157       O158   2.042       .  S
Fe157       O166   1.953       .  S
O158        C165   1.265       .  A
O159        C173   1.271       .  A
O160        C165   1.271       .  A
O161        C164   1.270       .  A
O162        C174   1.267       .  A
O163        C176   1.269       .  A
C164        O169   1.268       .  A
O167        C170   1.271       .  A
O168        C170   1.269       .  A
C170        C280   1.470       .  S
O171        C176   1.270       .  A
O172        C174   1.270       .  A
C173        O175   1.265       .  A
C173        C196   1.473       .  S
C174        C231   1.472       .  S
C176       C1320   1.470   1_455  S
Fe177       O193   2.068       .  S
Fe177       O183   2.081       .  S
Fe177       O190   2.063       .  S
Fe177       O182   2.086       .  S
Fe177       O188   1.992       .  S
Fe178       O181   2.086       .  S
Fe178       O185   2.063       .  S
Fe178       O189   2.068       .  S
Fe178       O194   2.082       .  S
Fe178       O188   1.992       .  S
Fe179       O197   2.043       .  S
Fe179       O184   2.049       .  S
Fe179       O191   2.048       .  S
Fe179       O180   2.043       .  S
Fe179       O188   1.953       .  S
O180        C187   1.265       .  A
O181        C195   1.271       .  A
O182        C187   1.271       .  A
O183        C186   1.270       .  A
O184        C196   1.267       .  A
O185        C198   1.269       .  A
C186        O191   1.267       .  A
O189        C192   1.271       .  A
O190        C192   1.269       .  A
C192       C1276   1.470   1_455  S
O193        C198   1.271       .  A
O194        C196   1.270       .  A
C195        O197   1.265       .  A
C195        C230   1.473       .  S
C198        C676   1.470       .  S
Fe199       O215   2.068       .  S
Fe199       O205   2.082       .  S
Fe199       O212   2.063       .  S
Fe199       O204   2.086       .  S
Fe199       O210   1.992       .  S
Fe200       O203   2.086       .  S
Fe200       O207   2.063       .  S
Fe200       O211   2.068       .  S
Fe200       O216   2.081       .  S
Fe200       O210   1.992       .  S
Fe201       O219   2.043       .  S
Fe201       O206   2.049       .  S
Fe201       O213   2.049       .  S
Fe201       O202   2.043       .  S
Fe201       O210   1.953       .  S
O202        C209   1.265       .  A
O203        C217   1.271       .  A
O204        C209   1.271       .  A
O205        C208   1.270       .  A
O206        C218   1.267       .  A
O207        C220   1.269       .  A
C208        O213   1.267       .  A
O211        C214   1.271       .  A
O212        C214   1.269       .  A
C214        C654   1.470       .  S
O215        C220   1.270       .  A
O216        C218   1.270       .  A
C217        O219   1.265       .  A
C217        C252   1.473       .  S
C218        C239   1.473       .  S
C220       C1248   1.470       .  S
Fe221       O237   2.068       .  S
Fe221       O227   2.081       .  S
Fe221       O234   2.063       .  S
Fe221       O226   2.086       .  S
Fe221       O232   1.992       .  S
Fe222       O225   2.086       .  S
Fe222       O229   2.063       .  S
Fe222       O233   2.068       .  S
Fe222       O238   2.081       .  S
Fe222       O232   1.992       .  S
Fe223       O241   2.042       .  S
Fe223       O228   2.049       .  S
Fe223       O235   2.049       .  S
Fe223       O224   2.042       .  S
Fe223       O232   1.953       .  S
O224        C231   1.265       .  A
O225        C239   1.271       .  A
O226        C231   1.271       .  A
O227        C230   1.270       .  A
O228        C240   1.267       .  A
O229        C242   1.269       .  A
C230        O235   1.268       .  A
O233        C236   1.271       .  A
O234        C236   1.269       .  A
C236        C330   1.470       .  S
O237        C242   1.271       .  A
O238        C240   1.270       .  A
C239        O241   1.265       .  A
C240        C253   1.473       .  S
C242        C638   1.470       .  S
Fe243       O259   2.068       .  S
Fe243       O249   2.082       .  S
Fe243       O256   2.064       .  S
Fe243       O248   2.085       .  S
Fe243       O254   1.992       .  S
Fe244       O247   2.086       .  S
Fe244       O251   2.063       .  S
Fe244       O255   2.068       .  S
Fe244       O260   2.081       .  S
Fe244       O254   1.992       .  S
Fe245       O263   2.043       .  S
Fe245       O250   2.048       .  S
Fe245       O257   2.049       .  S
Fe245       O246   2.043       .  S
Fe245       O254   1.953       .  S
O246        C253   1.265       .  A
O247        C261   1.271       .  A
O248        C253   1.271       .  A
O249        C252   1.270       .  A
O250        C262   1.267       .  A
O251        C264   1.269       .  A
C252        O257   1.267       .  A
O255        C258   1.271       .  A
O256        C258   1.269       .  A
C258        C302   1.470       .  S
O259        C264   1.270       .  A
O260        C262   1.270       .  A
C261        O263   1.265       .  A
C264       C1232   1.470       .  S
Fe265       O281   2.068       .  S
Fe265       O271   2.082       .  S
Fe265       O278   2.063       .  S
Fe265       O270   2.085       .  S
Fe265       O276   1.992       .  S
Fe266       O269   2.085       .  S
Fe266       O273   2.063       .  S
Fe266       O277   2.068       .  S
Fe266       O282   2.082       .  S
Fe266       O276   1.992       .  S
Fe267       O285   2.043       .  S
Fe267       O272   2.048       .  S
Fe267       O279   2.048       .  S
Fe267       O268   2.043       .  S
Fe267       O276   1.953       .  S
O268        C275   1.265       .  A
O269        C283   1.271       .  A
O270        C275   1.271       .  A
O271        C274   1.270       .  A
O272        C284   1.267       .  A
O273        C286   1.269       .  A
C274        O279   1.267       .  A
C274        C451   1.473       .  S
C275        C318   1.473       .  S
O277        C280   1.271       .  A
O278        C280   1.269       .  A
O281        C286   1.271       .  A
O282        C284   1.270       .  A
C283        O285   1.265       .  A
C283        C406   1.473       .  S
C284        C341   1.473       .  S
C286       C1364   1.470   1_455  S
Fe287       O303   2.068       .  S
Fe287       O293   2.081       .  S
Fe287       O300   2.064       .  S
Fe287       O292   2.086       .  S
Fe287       O298   1.992       .  S
Fe288       O291   2.086       .  S
Fe288       O295   2.063       .  S
Fe288       O299   2.068       .  S
Fe288       O304   2.081       .  S
Fe288       O298   1.992       .  S
Fe289       O307   2.043       .  S
Fe289       O294   2.049       .  S
Fe289       O301   2.049       .  S
Fe289       O290   2.043       .  S
Fe289       O298   1.953       .  S
O290        C297   1.265       .  A
O291        C305   1.271       .  A
O292        C297   1.271       .  A
O293        C296   1.270       .  A
O294        C306   1.267       .  A
O295        C308   1.269       .  A
C296        O301   1.267       .  A
C296        C393   1.473       .  S
C297        C350   1.473       .  S
O299        C302   1.271       .  A
O300        C302   1.269       .  A
O303        C308   1.271       .  A
O304        C306   1.270       .  A
C305        O307   1.265       .  A
C305        C472   1.473       .  S
C306        C327   1.472       .  S
C308       C1342   1.470       .  S
Fe309       O325   2.068       .  S
Fe309       O315   2.081       .  S
Fe309       O322   2.063       .  S
Fe309       O314   2.085       .  S
Fe309       O320   1.992       .  S
Fe310       O313   2.085       .  S
Fe310       O317   2.063       .  S
Fe310       O321   2.068       .  S
Fe310       O326   2.082       .  S
Fe310       O320   1.992       .  S
Fe311       O329   2.043       .  S
Fe311       O316   2.048       .  S
Fe311       O323   2.049       .  S
Fe311       O312   2.043       .  S
Fe311       O320   1.953       .  S
O312        C319   1.265       .  A
O313        C327   1.271       .  A
O314        C319   1.271       .  A
O315        C318   1.270       .  A
O316        C328   1.267       .  A
O317        C330   1.269       .  A
C318        O323   1.267       .  A
C319        C450   1.473       .  S
O321        C324   1.271       .  A
O322        C324   1.269       .  A
C324        C880   1.470       .  S
O325        C330   1.271       .  A
O326        C328   1.270       .  A
C327        O329   1.265       .  A
C328        C473   1.473       .  S
Fe331       O347   2.068       .  S
Fe331       O337   2.081       .  S
Fe331       O344   2.063       .  S
Fe331       O336   2.086       .  S
Fe331       O342   1.992       .  S
Fe332       O335   2.086       .  S
Fe332       O339   2.063       .  S
Fe332       O343   2.068       .  S
Fe332       O348   2.081       .  S
Fe332       O342   1.992       .  S
Fe333       O351   2.042       .  S
Fe333       O338   2.049       .  S
Fe333       O345   2.049       .  S
Fe333       O334   2.042       .  S
Fe333       O342   1.953       .  S
O334        C341   1.265       .  A
O335        C349   1.271       .  A
O336        C341   1.271       .  A
O337        C340   1.270       .  A
O338        C350   1.267       .  A
O339        C352   1.269       .  A
C340        O345   1.267       .  A
C340        C407   1.473       .  S
O343        C346   1.271       .  A
O344        C346   1.269       .  A
O347        C352   1.271       .  A
O348        C350   1.270       .  A
C349        O351   1.265       .  A
C349        C394   1.473       .  S
C352        C852   1.470   1_545  S
Fe353       O369   2.068       .  S
Fe353       O359   2.081       .  S
Fe353       O366   2.063       .  S
Fe353       O358   2.085       .  S
Fe353       O364   1.992       .  S
Fe354       O357   2.086       .  S
Fe354       O361   2.063       .  S
Fe354       O365   2.068       .  S
Fe354       O370   2.081       .  S
Fe354       O364   1.992       .  S
Fe355       O373   2.042       .  S
Fe355       O360   2.049       .  S
Fe355       O367   2.049       .  S
Fe355       O356   2.042       .  S
Fe355       O364   1.953       .  S
O356        C363   1.265       .  A
O357        C371   1.271       .  A
O358        C363   1.271       .  A
O359        C362   1.270       .  A
O360        C372   1.267       .  A
O361        C374   1.269       .  A
C362        O367   1.267       .  A
C362        C385   1.473       .  S
C363        C526   1.472       .  S
O365        C368   1.271       .  A
O366        C368   1.269       .  A
O369        C374   1.271       .  A
O370        C372   1.270       .  A
C371        O373   1.265       .  A
C371        C416   1.473       .  S
C372        C429   1.473       .  S
C374       C1034   1.470   1_545  S
Fe375       O391   2.068       .  S
Fe375       O381   2.081       .  S
Fe375       O388   2.063       .  S
Fe375       O380   2.086       .  S
Fe375       O386   1.992       .  S
Fe376       O379   2.085       .  S
Fe376       O383   2.063       .  S
Fe376       O387   2.068       .  S
Fe376       O392   2.082       .  S
Fe376       O386   1.992       .  S
Fe377       O395   2.043       .  S
Fe377       O382   2.048       .  S
Fe377       O389   2.048       .  S
Fe377       O378   2.043       .  S
Fe377       O386   1.953       .  S
O378        C385   1.265       .  A
O379        C393   1.271       .  A
O380        C385   1.271       .  A
O381        C384   1.270       .  A
O382        C394   1.267       .  A
O383        C396   1.269       .  A
C384        O389   1.267       .  A
C384        C525   1.473       .  S
O387        C390   1.271       .  A
O388        C390   1.269       .  A
C390       C1006   1.470   1_545  S
O391        C396   1.271       .  A
O392        C394   1.270       .  A
C393        O395   1.265       .  A
C396       C1474   1.470       .  S
Fe397       O413   2.068       .  S
Fe397       O403   2.081       .  S
Fe397       O410   2.063       .  S
Fe397       O402   2.086       .  S
Fe397       O408   1.992       .  S
Fe398       O401   2.086       .  S
Fe398       O405   2.063       .  S
Fe398       O409   2.068       .  S
Fe398       O414   2.081       .  S
Fe398       O408   1.992       .  S
Fe399       O417   2.043       .  S
Fe399       O404   2.049       .  S
Fe399       O411   2.049       .  S
Fe399       O400   2.043       .  S
Fe399       O408   1.953       .  S
O400        C407   1.265       .  A
O401        C415   1.271       .  A
O402        C407   1.271       .  A
O403        C406   1.270       .  A
O404        C416   1.267       .  A
O405        C418   1.269       .  A
C406        O411   1.267       .  A
O409        C412   1.271       .  A
O410        C412   1.269       .  A
C412        C990   1.470   1_545  S
O413        C418   1.271       .  A
O414        C416   1.270       .  A
C415        O417   1.265       .  A
C415        C428   1.473       .  S
C418       C1452   1.470   1_455  S
Fe419       O435   2.068       .  S
Fe419       O425   2.081       .  S
Fe419       O432   2.063       .  S
Fe419       O424   2.086       .  S
Fe419       O430   1.992       .  S
Fe420       O423   2.086       .  S
Fe420       O427   2.063       .  S
Fe420       O431   2.068       .  S
Fe420       O436   2.081       .  S
Fe420       O430   1.992       .  S
Fe421       O439   2.042       .  S
Fe421       O426   2.049       .  S
Fe421       O433   2.049       .  S
Fe421       O422   2.042       .  S
Fe421       O430   1.953       .  S
O422        C429   1.265       .  A
O423        C437   1.271       .  A
O424        C429   1.271       .  A
O425        C428   1.270       .  A
O426        C438   1.267       .  A
O427        C440   1.269       .  A
C428        O433   1.268       .  A
O431        C434   1.271       .  A
O432        C434   1.269       .  A
O435        C440   1.270       .  A
O436        C438   1.270       .  A
C437        O439   1.265       .  A
C437        C460   1.473       .  S
C438        C495   1.472       .  S
C440       C1584   1.470   1_455  S
Fe441       O457   2.068       .  S
Fe441       O447   2.081       .  S
Fe441       O454   2.063       .  S
Fe441       O446   2.086       .  S
Fe441       O452   1.992       .  S
Fe442       O445   2.086       .  S
Fe442       O449   2.063       .  S
Fe442       O453   2.068       .  S
Fe442       O458   2.082       .  S
Fe442       O452   1.992       .  S
Fe443       O461   2.043       .  S
Fe443       O448   2.049       .  S
Fe443       O455   2.048       .  S
Fe443       O444   2.043       .  S
Fe443       O452   1.953       .  S
O444        C451   1.265       .  A
O445        C459   1.271       .  A
O446        C451   1.271       .  A
O447        C450   1.270       .  A
O448        C460   1.267       .  A
O449        C462   1.269       .  A
C450        O455   1.267       .  A
O453        C456   1.271       .  A
O454        C456   1.269       .  A
C456       C1540   1.470   1_455  S
O457        C462   1.271       .  A
O458        C460   1.270       .  A
C459        O461   1.265       .  A
C459        C494   1.473       .  S
C462        C940   1.470       .  S
Fe463       O479   2.068       .  S
Fe463       O469   2.082       .  S
Fe463       O476   2.063       .  S
Fe463       O468   2.086       .  S
Fe463       O474   1.992       .  S
Fe464       O467   2.086       .  S
Fe464       O471   2.063       .  S
Fe464       O475   2.068       .  S
Fe464       O480   2.081       .  S
Fe464       O474   1.992       .  S
Fe465       O483   2.043       .  S
Fe465       O470   2.049       .  S
Fe465       O477   2.049       .  S
Fe465       O466   2.043       .  S
Fe465       O474   1.953       .  S
O466        C473   1.265       .  A
O467        C481   1.271       .  A
O468        C473   1.271       .  A
O469        C472   1.270       .  A
O470        C482   1.267       .  A
O471        C484   1.269       .  A
C472        O477   1.267       .  A
O475        C478   1.271       .  A
O476        C478   1.269       .  A
C478        C918   1.470       .  S
O479        C484   1.270       .  A
O480        C482   1.270       .  A
C481        O483   1.265       .  A
C481        C516   1.473       .  S
C482        C503   1.473       .  S
C484       C1512   1.470       .  S
Fe485       O501   2.068       .  S
Fe485       O491   2.081       .  S
Fe485       O498   2.063       .  S
Fe485       O490   2.086       .  S
Fe485       O496   1.992       .  S
Fe486       O489   2.086       .  S
Fe486       O493   2.063       .  S
Fe486       O497   2.068       .  S
Fe486       O502   2.081       .  S
Fe486       O496   1.992       .  S
Fe487       O505   2.042       .  S
Fe487       O492   2.049       .  S
Fe487       O499   2.049       .  S
Fe487       O488   2.042       .  S
Fe487       O496   1.953       .  S
O488        C495   1.265       .  A
O489        C503   1.271       .  A
O490        C495   1.271       .  A
O491        C494   1.270       .  A
O492        C504   1.267       .  A
O493        C506   1.269       .  A
C494        O499   1.268       .  A
O497        C500   1.271       .  A
O498        C500   1.269       .  A
O501        C506   1.271       .  A
O502        C504   1.270       .  A
C503        O505   1.265       .  A
C504        C517   1.473       .  S
C506        C902   1.470       .  S
Fe507       O523   2.068       .  S
Fe507       O513   2.082       .  S
Fe507       O520   2.064       .  S
Fe507       O512   2.085       .  S
Fe507       O518   1.992       .  S
Fe508       O511   2.086       .  S
Fe508       O515   2.063       .  S
Fe508       O519   2.068       .  S
Fe508       O524   2.081       .  S
Fe508       O518   1.992       .  S
Fe509       O527   2.043       .  S
Fe509       O514   2.048       .  S
Fe509       O521   2.049       .  S
Fe509       O510   2.043       .  S
Fe509       O518   1.953       .  S
O510        C517   1.265       .  A
O511        C525   1.271       .  A
O512        C517   1.271       .  A
O513        C516   1.270       .  A
O514        C526   1.267       .  A
O515        C528   1.269       .  A
C516        O521   1.267       .  A
O519        C522   1.271       .  A
O520        C522   1.269       .  A
O523        C528   1.270       .  A
O524        C526   1.270       .  A
C525        O527   1.265       .  A
C528       C1496   1.470       .  S
Fe529       O545   2.068       .  S
Fe529       O535   2.082       .  S
Fe529       O542   2.063       .  S
Fe529       O534   2.085       .  S
Fe529       O540   1.992       .  S
Fe530       O533   2.085       .  S
Fe530       O537   2.063       .  S
Fe530       O541   2.068       .  S
Fe530       O546   2.082       .  S
Fe530       O540   1.992       .  S
Fe531       O549   2.043       .  S
Fe531       O536   2.048       .  S
Fe531       O543   2.048       .  S
Fe531       O532   2.043       .  S
Fe531       O540   1.953       .  S
O532        C539   1.265       .  A
O533        C547   1.271       .  A
O534        C539   1.271       .  A
O535        C538   1.270       .  A
O536        C548   1.267       .  A
O537        C550   1.269       .  A
C538        O543   1.267       .  A
C538        C715   1.473       .  S
C539        C582   1.473       .  S
O541        C544   1.271       .  A
O542        C544   1.269       .  A
C544        C962   1.470   1_554  S
O545        C550   1.271       .  A
O546        C548   1.270       .  A
C547        O549   1.265       .  A
C547        C670   1.473       .  S
C548        C605   1.473       .  S
C550       C1628   1.470   1_455  S
Fe551       O567   2.068       .  S
Fe551       O557   2.081       .  S
Fe551       O564   2.064       .  S
Fe551       O556   2.086       .  S
Fe551       O562   1.992       .  S
Fe552       O555   2.086       .  S
Fe552       O559   2.063       .  S
Fe552       O563   2.068       .  S
Fe552       O568   2.081       .  S
Fe552       O562   1.992       .  S
Fe553       O571   2.043       .  S
Fe553       O558   2.049       .  S
Fe553       O565   2.049       .  S
Fe553       O554   2.043       .  S
Fe553       O562   1.953       .  S
O554        C561   1.265       .  A
O555        C569   1.271       .  A
O556        C561   1.271       .  A
O557        C560   1.270       .  A
O558        C570   1.267       .  A
O559        C572   1.269       .  A
C560        O565   1.267       .  A
C560        C657   1.473       .  S
C561        C614   1.473       .  S
O563        C566   1.271       .  A
O564        C566   1.269       .  A
C566       C1050   1.470   1_554  S
O567        C572   1.271       .  A
O568        C570   1.270       .  A
C569        O571   1.265       .  A
C569        C736   1.473       .  S
C570        C591   1.472       .  S
C572       C1606   1.470       .  S
Fe573       O589   2.068       .  S
Fe573       O579   2.081       .  S
Fe573       O586   2.063       .  S
Fe573       O578   2.085       .  S
Fe573       O584   1.992       .  S
Fe574       O577   2.085       .  S
Fe574       O581   2.063       .  S
Fe574       O585   2.068       .  S
Fe574       O590   2.082       .  S
Fe574       O584   1.992       .  S
Fe575       O593   2.043       .  S
Fe575       O580   2.048       .  S
Fe575       O587   2.049       .  S
Fe575       O576   2.043       .  S
Fe575       O584   1.953       .  S
O576        C583   1.265       .  A
O577        C591   1.271       .  A
O578        C583   1.271       .  A
O579        C582   1.270       .  A
O580        C592   1.267       .  A
O581        C594   1.269       .  A
C582        O587   1.267       .  A
C583        C714   1.473       .  S
O585        C588   1.271       .  A
O586        C588   1.269       .  A
O589        C594   1.271       .  A
O590        C592   1.270       .  A
C591        O593   1.265       .  A
C592        C737   1.473       .  S
C594       C1028   1.470   1_554  S
Fe595       O611   2.068       .  S
Fe595       O601   2.081       .  S
Fe595       O608   2.063       .  S
Fe595       O600   2.086       .  S
Fe595       O606   1.992       .  S
Fe596       O599   2.086       .  S
Fe596       O603   2.063       .  S
Fe596       O607   2.068       .  S
Fe596       O612   2.081       .  S
Fe596       O606   1.992       .  S
Fe597       O615   2.042       .  S
Fe597       O602   2.049       .  S
Fe597       O609   2.049       .  S
Fe597       O598   2.042       .  S
Fe597       O606   1.953       .  S
O598        C605   1.265       .  A
O599        C613   1.271       .  A
O600        C605   1.271       .  A
O601        C604   1.270       .  A
O602        C614   1.267       .  A
O603        C616   1.269       .  A
C604        O609   1.267       .  A
C604        C671   1.473       .  S
O607        C610   1.271       .  A
O608        C610   1.269       .  A
C610        C896   1.470   1_554  S
O611        C616   1.271       .  A
O612        C614   1.270       .  A
C613        O615   1.265       .  A
C613        C658   1.473       .  S
Fe617       O633   2.068       .  S
Fe617       O623   2.081       .  S
Fe617       O630   2.063       .  S
Fe617       O622   2.085       .  S
Fe617       O628   1.992       .  S
Fe618       O621   2.086       .  S
Fe618       O625   2.063       .  S
Fe618       O629   2.068       .  S
Fe618       O634   2.081       .  S
Fe618       O628   1.992       .  S
Fe619       O637   2.042       .  S
Fe619       O624   2.049       .  S
Fe619       O631   2.049       .  S
Fe619       O620   2.042       .  S
Fe619       O628   1.953       .  S
O620        C627   1.265       .  A
O621        C635   1.271       .  A
O622        C627   1.271       .  A
O623        C626   1.270       .  A
O624        C636   1.267       .  A
O625        C638   1.269       .  A
C626        O631   1.267       .  A
C626        C649   1.473       .  S
C627        C790   1.472       .  S
O629        C632   1.271       .  A
O630        C632   1.269       .  A
C632        C874   1.470       .  S
O633        C638   1.271       .  A
O634        C636   1.270       .  A
C635        O637   1.265       .  A
C635        C680   1.473       .  S
C636        C693   1.473       .  S
Fe639       O655   2.068       .  S
Fe639       O645   2.081       .  S
Fe639       O652   2.063       .  S
Fe639       O644   2.086       .  S
Fe639       O650   1.992       .  S
Fe640       O643   2.085       .  S
Fe640       O647   2.063       .  S
Fe640       O651   2.068       .  S
Fe640       O656   2.082       .  S
Fe640       O650   1.992       .  S
Fe641       O659   2.043       .  S
Fe641       O646   2.048       .  S
Fe641       O653   2.048       .  S
Fe641       O642   2.043       .  S
Fe641       O650   1.953       .  S
O642        C649   1.265       .  A
O643        C657   1.271       .  A
O644        C649   1.271       .  A
O645        C648   1.270       .  A
O646        C658   1.267       .  A
O647        C660   1.269       .  A
C648        O653   1.267       .  A
C648        C789   1.473       .  S
O651        C654   1.271       .  A
O652        C654   1.269       .  A
O655        C660   1.271       .  A
O656        C658   1.270       .  A
C657        O659   1.265       .  A
C660       C1738   1.470       .  S
Fe661       O677   2.068       .  S
Fe661       O667   2.081       .  S
Fe661       O674   2.063       .  S
Fe661       O666   2.086       .  S
Fe661       O672   1.992       .  S
Fe662       O665   2.086       .  S
Fe662       O669   2.063       .  S
Fe662       O673   2.068       .  S
Fe662       O678   2.081       .  S
Fe662       O672   1.992       .  S
Fe663       O681   2.043       .  S
Fe663       O668   2.049       .  S
Fe663       O675   2.049       .  S
Fe663       O664   2.043       .  S
Fe663       O672   1.953       .  S
O664        C671   1.265       .  A
O665        C679   1.271       .  A
O666        C671   1.271       .  A
O667        C670   1.270       .  A
O668        C680   1.267       .  A
O669        C682   1.269       .  A
C670        O675   1.267       .  A
O673        C676   1.271       .  A
O674        C676   1.269       .  A
O677        C682   1.271       .  A
O678        C680   1.270       .  A
C679        O681   1.265       .  A
C679        C692   1.473       .  S
C682       C1716   1.470   1_455  S
Fe683       O699   2.068       .  S
Fe683       O689   2.081       .  S
Fe683       O696   2.063       .  S
Fe683       O688   2.086       .  S
Fe683       O694   1.992       .  S
Fe684       O687   2.086       .  S
Fe684       O691   2.063       .  S
Fe684       O695   2.068       .  S
Fe684       O700   2.081       .  S
Fe684       O694   1.992       .  S
Fe685       O703   2.042       .  S
Fe685       O690   2.049       .  S
Fe685       O697   2.049       .  S
Fe685       O686   2.042       .  S
Fe685       O694   1.953       .  S
O686        C693   1.265       .  A
O687        C701   1.271       .  A
O688        C693   1.271       .  A
O689        C692   1.270       .  A
O690        C702   1.267       .  A
O691        C704   1.269       .  A
C692        O697   1.268       .  A
O695        C698   1.271       .  A
O696        C698   1.269       .  A
C698        C808   1.470       .  S
O699        C704   1.270       .  A
O700        C702   1.270       .  A
C701        O703   1.265       .  A
C701        C724   1.473       .  S
C702        C759   1.472       .  S
C704       C1848   1.470   1_455  S
Fe705       O721   2.068       .  S
Fe705       O711   2.081       .  S
Fe705       O718   2.063       .  S
Fe705       O710   2.086       .  S
Fe705       O716   1.992       .  S
Fe706       O709   2.086       .  S
Fe706       O713   2.063       .  S
Fe706       O717   2.068       .  S
Fe706       O722   2.082       .  S
Fe706       O716   1.992       .  S
Fe707       O725   2.043       .  S
Fe707       O712   2.049       .  S
Fe707       O719   2.048       .  S
Fe707       O708   2.043       .  S
Fe707       O716   1.953       .  S
O708        C715   1.265       .  A
O709        C723   1.271       .  A
O710        C715   1.271       .  A
O711        C714   1.270       .  A
O712        C724   1.267       .  A
O713        C726   1.269       .  A
C714        O719   1.267       .  A
O717        C720   1.271       .  A
O718        C720   1.269       .  A
C720       C1804   1.470   1_455  S
O721        C726   1.271       .  A
O722        C724   1.270       .  A
C723        O725   1.265       .  A
C723        C758   1.473       .  S
Fe727       O743   2.068       .  S
Fe727       O733   2.082       .  S
Fe727       O740   2.063       .  S
Fe727       O732   2.086       .  S
Fe727       O738   1.992       .  S
Fe728       O731   2.086       .  S
Fe728       O735   2.063       .  S
Fe728       O739   2.068       .  S
Fe728       O744   2.081       .  S
Fe728       O738   1.992       .  S
Fe729       O747   2.043       .  S
Fe729       O734   2.049       .  S
Fe729       O741   2.049       .  S
Fe729       O730   2.043       .  S
Fe729       O738   1.953       .  S
O730        C737   1.265       .  A
O731        C745   1.271       .  A
O732        C737   1.271       .  A
O733        C736   1.270       .  A
O734        C746   1.267       .  A
O735        C748   1.269       .  A
C736        O741   1.267       .  A
O739        C742   1.271       .  A
O740        C742   1.269       .  A
O743        C748   1.270       .  A
O744        C746   1.270       .  A
C745        O747   1.265       .  A
C745        C780   1.473       .  S
C746        C767   1.473       .  S
C748       C1776   1.470       .  S
Fe749       O765   2.068       .  S
Fe749       O755   2.081       .  S
Fe749       O762   2.063       .  S
Fe749       O754   2.086       .  S
Fe749       O760   1.992       .  S
Fe750       O753   2.086       .  S
Fe750       O757   2.063       .  S
Fe750       O761   2.068       .  S
Fe750       O766   2.081       .  S
Fe750       O760   1.992       .  S
Fe751       O769   2.042       .  S
Fe751       O756   2.049       .  S
Fe751       O763   2.049       .  S
Fe751       O752   2.042       .  S
Fe751       O760   1.953       .  S
O752        C759   1.265       .  A
O753        C767   1.271       .  A
O754        C759   1.271       .  A
O755        C758   1.270       .  A
O756        C768   1.267       .  A
O757        C770   1.269       .  A
C758        O763   1.268       .  A
O761        C764   1.271       .  A
O762        C764   1.269       .  A
C764        C858   1.470       .  S
O765        C770   1.271       .  A
O766        C768   1.270       .  A
C767        O769   1.265       .  A
C768        C781   1.473       .  S
Fe771       O787   2.068       .  S
Fe771       O777   2.082       .  S
Fe771       O784   2.064       .  S
Fe771       O776   2.085       .  S
Fe771       O782   1.992       .  S
Fe772       O775   2.086       .  S
Fe772       O779   2.063       .  S
Fe772       O783   2.068       .  S
Fe772       O788   2.081       .  S
Fe772       O782   1.992       .  S
Fe773       O791   2.043       .  S
Fe773       O778   2.048       .  S
Fe773       O785   2.049       .  S
Fe773       O774   2.043       .  S
Fe773       O782   1.953       .  S
O774        C781   1.265       .  A
O775        C789   1.271       .  A
O776        C781   1.271       .  A
O777        C780   1.270       .  A
O778        C790   1.267       .  A
O779        C792   1.269       .  A
C780        O785   1.267       .  A
O783        C786   1.271       .  A
O784        C786   1.269       .  A
C786        C830   1.470       .  S
O787        C792   1.270       .  A
O788        C790   1.270       .  A
C789        O791   1.265       .  A
C792       C1760   1.470       .  S
Fe793       O809   2.068       .  S
Fe793       O799   2.082       .  S
Fe793       O806   2.063       .  S
Fe793       O798   2.085       .  S
Fe793       O804   1.992       .  S
Fe794       O797   2.085       .  S
Fe794       O801   2.063       .  S
Fe794       O805   2.068       .  S
Fe794       O810   2.082       .  S
Fe794       O804   1.992       .  S
Fe795       O813   2.043       .  S
Fe795       O800   2.048       .  S
Fe795       O807   2.048       .  S
Fe795       O796   2.043       .  S
Fe795       O804   1.953       .  S
O796        C803   1.265       .  A
O797        C811   1.271       .  A
O798        C803   1.271       .  A
O799        C802   1.270       .  A
O800        C812   1.267       .  A
O801        C814   1.269       .  A
C802        O807   1.267       .  A
C802        C979   1.473       .  S
C803        C846   1.473       .  S
O805        C808   1.271       .  A
O806        C808   1.269       .  A
O809        C814   1.271       .  A
O810        C812   1.270       .  A
C811        O813   1.265       .  A
C811        C934   1.473       .  S
C812        C869   1.473       .  S
C814       C1892   1.470   1_455  S
Fe815       O831   2.068       .  S
Fe815       O821   2.081       .  S
Fe815       O828   2.064       .  S
Fe815       O820   2.086       .  S
Fe815       O826   1.992       .  S
Fe816       O819   2.086       .  S
Fe816       O823   2.063       .  S
Fe816       O827   2.068       .  S
Fe816       O832   2.081       .  S
Fe816       O826   1.992       .  S
Fe817       O835   2.043       .  S
Fe817       O822   2.049       .  S
Fe817       O829   2.049       .  S
Fe817       O818   2.043       .  S
Fe817       O826   1.953       .  S
O818        C825   1.265       .  A
O819        C833   1.271       .  A
O820        C825   1.271       .  A
O821        C824   1.270       .  A
O822        C834   1.267       .  A
O823        C836   1.269       .  A
C824        O829   1.267       .  A
C824        C921   1.473       .  S
C825        C878   1.473       .  S
O827        C830   1.271       .  A
O828        C830   1.269       .  A
O831        C836   1.271       .  A
O832        C834   1.270       .  A
C833        O835   1.265       .  A
C833       C1000   1.473       .  S
C834        C855   1.472       .  S
C836       C1870   1.470       .  S
Fe837       O853   2.068       .  S
Fe837       O843   2.081       .  S
Fe837       O850   2.063       .  S
Fe837       O842   2.085       .  S
Fe837       O848   1.992       .  S
Fe838       O841   2.085       .  S
Fe838       O845   2.063       .  S
Fe838       O849   2.068       .  S
Fe838       O854   2.082       .  S
Fe838       O848   1.992       .  S
Fe839       O857   2.043       .  S
Fe839       O844   2.048       .  S
Fe839       O851   2.049       .  S
Fe839       O840   2.043       .  S
Fe839       O848   1.953       .  S
O840        C847   1.265       .  A
O841        C855   1.271       .  A
O842        C847   1.271       .  A
O843        C846   1.270       .  A
O844        C856   1.267       .  A
O845        C858   1.269       .  A
C846        O851   1.267       .  A
C847        C978   1.473       .  S
O849        C852   1.271       .  A
O850        C852   1.269       .  A
O853        C858   1.271       .  A
O854        C856   1.270       .  A
C855        O857   1.265       .  A
C856       C1001   1.473       .  S
Fe859       O875   2.068       .  S
Fe859       O865   2.081       .  S
Fe859       O872   2.063       .  S
Fe859       O864   2.086       .  S
Fe859       O870   1.992       .  S
Fe860       O863   2.086       .  S
Fe860       O867   2.063       .  S
Fe860       O871   2.068       .  S
Fe860       O876   2.081       .  S
Fe860       O870   1.992       .  S
Fe861       O879   2.042       .  S
Fe861       O866   2.049       .  S
Fe861       O873   2.049       .  S
Fe861       O862   2.042       .  S
Fe861       O870   1.953       .  S
O862        C869   1.265       .  A
O863        C877   1.271       .  A
O864        C869   1.271       .  A
O865        C868   1.270       .  A
O866        C878   1.267       .  A
O867        C880   1.269       .  A
C868        O873   1.267       .  A
C868        C935   1.473       .  S
O871        C874   1.271       .  A
O872        C874   1.269       .  A
O875        C880   1.271       .  A
O876        C878   1.270       .  A
C877        O879   1.265       .  A
C877        C922   1.473       .  S
Fe881       O897   2.068       .  S
Fe881       O887   2.081       .  S
Fe881       O894   2.063       .  S
Fe881       O886   2.085       .  S
Fe881       O892   1.992       .  S
Fe882       O885   2.086       .  S
Fe882       O889   2.063       .  S
Fe882       O893   2.068       .  S
Fe882       O898   2.081       .  S
Fe882       O892   1.992       .  S
Fe883       O901   2.042       .  S
Fe883       O888   2.049       .  S
Fe883       O895   2.049       .  S
Fe883       O884   2.042       .  S
Fe883       O892   1.953       .  S
O884        C891   1.265       .  A
O885        C899   1.271       .  A
O886        C891   1.271       .  A
O887        C890   1.270       .  A
O888        C900   1.267       .  A
O889        C902   1.269       .  A
C890        O895   1.267       .  A
C890        C913   1.473       .  S
C891       C1054   1.472       .  S
O893        C896   1.271       .  A
O894        C896   1.269       .  A
O897        C902   1.271       .  A
O898        C900   1.270       .  A
C899        O901   1.265       .  A
C899        C944   1.473       .  S
C900        C957   1.473       .  S
Fe903       O919   2.068       .  S
Fe903       O909   2.081       .  S
Fe903       O916   2.063       .  S
Fe903       O908   2.086       .  S
Fe903       O914   1.992       .  S
Fe904       O907   2.085       .  S
Fe904       O911   2.063       .  S
Fe904       O915   2.068       .  S
Fe904       O920   2.082       .  S
Fe904       O914   1.992       .  S
Fe905       O923   2.043       .  S
Fe905       O910   2.048       .  S
Fe905       O917   2.048       .  S
Fe905       O906   2.043       .  S
Fe905       O914   1.953       .  S
O906        C913   1.265       .  A
O907        C921   1.271       .  A
O908        C913   1.271       .  A
O909        C912   1.270       .  A
O910        C922   1.267       .  A
O911        C924   1.269       .  A
C912        O917   1.267       .  A
C912       C1053   1.473       .  S
O915        C918   1.271       .  A
O916        C918   1.269       .  A
O919        C924   1.271       .  A
O920        C922   1.270       .  A
C921        O923   1.265       .  A
C924       C2002   1.470       .  S
Fe925       O941   2.068       .  S
Fe925       O931   2.081       .  S
Fe925       O938   2.063       .  S
Fe925       O930   2.086       .  S
Fe925       O936   1.992       .  S
Fe926       O929   2.086       .  S
Fe926       O933   2.063       .  S
Fe926       O937   2.068       .  S
Fe926       O942   2.081       .  S
Fe926       O936   1.992       .  S
Fe927       O945   2.043       .  S
Fe927       O932   2.049       .  S
Fe927       O939   2.049       .  S
Fe927       O928   2.043       .  S
Fe927       O936   1.953       .  S
O928        C935   1.265       .  A
O929        C943   1.271       .  A
O930        C935   1.271       .  A
O931        C934   1.270       .  A
O932        C944   1.267       .  A
O933        C946   1.269       .  A
C934        O939   1.267       .  A
O937        C940   1.271       .  A
O938        C940   1.269       .  A
O941        C946   1.271       .  A
O942        C944   1.270       .  A
C943        O945   1.265       .  A
C943        C956   1.473       .  S
C946       C1980   1.470   1_455  S
Fe947       O963   2.068       .  S
Fe947       O953   2.081       .  S
Fe947       O960   2.063       .  S
Fe947       O952   2.086       .  S
Fe947       O958   1.992       .  S
Fe948       O951   2.086       .  S
Fe948       O955   2.063       .  S
Fe948       O959   2.068       .  S
Fe948       O964   2.081       .  S
Fe948       O958   1.992       .  S
Fe949       O967   2.042       .  S
Fe949       O954   2.049       .  S
Fe949       O961   2.049       .  S
Fe949       O950   2.042       .  S
Fe949       O958   1.953       .  S
O950        C957   1.265       .  A
O951        C965   1.271       .  A
O952        C957   1.271       .  A
O953        C956   1.270       .  A
O954        C966   1.267       .  A
O955        C968   1.269       .  A
C956        O961   1.268       .  A
O959        C962   1.271       .  A
O960        C962   1.269       .  A
O963        C968   1.270       .  A
O964        C966   1.270       .  A
C965        O967   1.265       .  A
C965        C988   1.473       .  S
C966       C1023   1.472       .  S
C968       C2112   1.470   1_455  S
Fe969       O985   2.068       .  S
Fe969       O975   2.081       .  S
Fe969       O982   2.063       .  S
Fe969       O974   2.086       .  S
Fe969       O980   1.992       .  S
Fe970       O973   2.086       .  S
Fe970       O977   2.063       .  S
Fe970       O981   2.068       .  S
Fe970       O986   2.082       .  S
Fe970       O980   1.992       .  S
Fe971       O989   2.043       .  S
Fe971       O976   2.049       .  S
Fe971       O983   2.048       .  S
Fe971       O972   2.043       .  S
Fe971       O980   1.953       .  S
O972        C979   1.265       .  A
O973        C987   1.271       .  A
O974        C979   1.271       .  A
O975        C978   1.270       .  A
O976        C988   1.267       .  A
O977        C990   1.269       .  A
C978        O983   1.267       .  A
O981        C984   1.271       .  A
O982        C984   1.269       .  A
C984       C2068   1.470   1_455  S
O985        C990   1.271       .  A
O986        C988   1.270       .  A
C987        O989   1.265       .  A
C987       C1022   1.473       .  S
Fe991      O1007   2.068       .  S
Fe991       O997   2.082       .  S
Fe991      O1004   2.063       .  S
Fe991       O996   2.086       .  S
Fe991      O1002   1.992       .  S
Fe992       O995   2.086       .  S
Fe992       O999   2.063       .  S
Fe992      O1003   2.068       .  S
Fe992      O1008   2.081       .  S
Fe992      O1002   1.992       .  S
Fe993      O1011   2.043       .  S
Fe993       O998   2.049       .  S
Fe993      O1005   2.049       .  S
Fe993       O994   2.043       .  S
Fe993      O1002   1.953       .  S
O994       C1001   1.265       .  A
O995       C1009   1.271       .  A
O996       C1001   1.271       .  A
O997       C1000   1.270       .  A
O998       C1010   1.267       .  A
O999       C1012   1.269       .  A
C1000      O1005   1.267       .  A
O1003      C1006   1.271       .  A
O1004      C1006   1.269       .  A
O1007      C1012   1.270       .  A
O1008      C1010   1.270       .  A
C1009      O1011   1.265       .  A
C1009      C1044   1.473       .  S
C1010      C1031   1.473       .  S
C1012      C2040   1.470       .  S
Fe1013     O1029   2.068       .  S
Fe1013     O1019   2.081       .  S
Fe1013     O1026   2.063       .  S
Fe1013     O1018   2.086       .  S
Fe1013     O1024   1.992       .  S
Fe1014     O1017   2.086       .  S
Fe1014     O1021   2.063       .  S
Fe1014     O1025   2.068       .  S
Fe1014     O1030   2.081       .  S
Fe1014     O1024   1.992       .  S
Fe1015     O1033   2.042       .  S
Fe1015     O1020   2.049       .  S
Fe1015     O1027   2.049       .  S
Fe1015     O1016   2.042       .  S
Fe1015     O1024   1.953       .  S
O1016      C1023   1.265       .  A
O1017      C1031   1.271       .  A
O1018      C1023   1.271       .  A
O1019      C1022   1.270       .  A
O1020      C1032   1.267       .  A
O1021      C1034   1.269       .  A
C1022      O1027   1.268       .  A
O1025      C1028   1.271       .  A
O1026      C1028   1.269       .  A
O1029      C1034   1.271       .  A
O1030      C1032   1.270       .  A
C1031      O1033   1.265       .  A
C1032      C1045   1.473       .  S
Fe1035     O1051   2.068       .  S
Fe1035     O1041   2.082       .  S
Fe1035     O1048   2.064       .  S
Fe1035     O1040   2.085       .  S
Fe1035     O1046   1.992       .  S
Fe1036     O1039   2.086       .  S
Fe1036     O1043   2.063       .  S
Fe1036     O1047   2.068       .  S
Fe1036     O1052   2.081       .  S
Fe1036     O1046   1.992       .  S
Fe1037     O1055   2.043       .  S
Fe1037     O1042   2.048       .  S
Fe1037     O1049   2.049       .  S
Fe1037     O1038   2.043       .  S
Fe1037     O1046   1.953       .  S
O1038      C1045   1.265       .  A
O1039      C1053   1.271       .  A
O1040      C1045   1.271       .  A
O1041      C1044   1.270       .  A
O1042      C1054   1.267       .  A
O1043      C1056   1.269       .  A
C1044      O1049   1.267       .  A
O1047      C1050   1.271       .  A
O1048      C1050   1.269       .  A
O1051      C1056   1.270       .  A
O1052      C1054   1.270       .  A
C1053      O1055   1.265       .  A
C1056      C2024   1.470       .  S
Fe1057     O1073   2.068       .  S
Fe1057     O1063   2.082       .  S
Fe1057     O1070   2.063       .  S
Fe1057     O1062   2.085       .  S
Fe1057     O1068   1.992       .  S
Fe1058     O1061   2.085       .  S
Fe1058     O1065   2.063       .  S
Fe1058     O1069   2.068       .  S
Fe1058     O1074   2.082       .  S
Fe1058     O1068   1.992       .  S
Fe1059     O1077   2.043       .  S
Fe1059     O1064   2.048       .  S
Fe1059     O1071   2.048       .  S
Fe1059     O1060   2.043       .  S
Fe1059     O1068   1.953       .  S
O1060      C1067   1.265       .  A
O1061      C1075   1.271       .  A
O1062      C1067   1.271       .  A
O1063      C1066   1.270       .  A
O1064      C1076   1.267       .  A
O1065      C1078   1.269       .  A
C1066      O1071   1.267       .  A
C1066      C1243   1.473       .  S
C1067      C1110   1.473       .  S
O1069      C1072   1.271       .  A
O1070      C1072   1.269       .  A
C1072      C1490   1.470   1_554  S
O1073      C1078   1.271       .  A
O1074      C1076   1.270       .  A
C1075      O1077   1.265       .  A
C1075      C1198   1.473       .  S
C1076      C1133   1.473       .  S
Fe1079     O1095   2.068       .  S
Fe1079     O1085   2.081       .  S
Fe1079     O1092   2.064       .  S
Fe1079     O1084   2.086       .  S
Fe1079     O1090   1.992       .  S
Fe1080     O1083   2.086       .  S
Fe1080     O1087   2.063       .  S
Fe1080     O1091   2.068       .  S
Fe1080     O1096   2.081       .  S
Fe1080     O1090   1.992       .  S
Fe1081     O1099   2.043       .  S
Fe1081     O1086   2.049       .  S
Fe1081     O1093   2.049       .  S
Fe1081     O1082   2.043       .  S
Fe1081     O1090   1.953       .  S
O1082      C1089   1.265       .  A
O1083      C1097   1.271       .  A
O1084      C1089   1.271       .  A
O1085      C1088   1.270       .  A
O1086      C1098   1.267       .  A
O1087      C1100   1.269       .  A
C1088      O1093   1.267       .  A
C1088      C1185   1.473       .  S
C1089      C1142   1.473       .  S
O1091      C1094   1.271       .  A
O1092      C1094   1.269       .  A
C1094      C1578   1.470   1_554  S
O1095      C1100   1.271       .  A
O1096      C1098   1.270       .  A
C1097      O1099   1.265       .  A
C1097      C1264   1.473       .  S
C1098      C1119   1.472       .  S
Fe1101     O1117   2.068       .  S
Fe1101     O1107   2.081       .  S
Fe1101     O1114   2.063       .  S
Fe1101     O1106   2.085       .  S
Fe1101     O1112   1.992       .  S
Fe1102     O1105   2.085       .  S
Fe1102     O1109   2.063       .  S
Fe1102     O1113   2.068       .  S
Fe1102     O1118   2.082       .  S
Fe1102     O1112   1.992       .  S
Fe1103     O1121   2.043       .  S
Fe1103     O1108   2.048       .  S
Fe1103     O1115   2.049       .  S
Fe1103     O1104   2.043       .  S
Fe1103     O1112   1.953       .  S
O1104      C1111   1.265       .  A
O1105      C1119   1.271       .  A
O1106      C1111   1.271       .  A
O1107      C1110   1.270       .  A
O1108      C1120   1.267       .  A
O1109      C1122   1.269       .  A
C1110      O1115   1.267       .  A
C1111      C1242   1.473       .  S
O1113      C1116   1.271       .  A
O1114      C1116   1.269       .  A
C1116      C1672   1.470       .  S
O1117      C1122   1.271       .  A
O1118      C1120   1.270       .  A
C1119      O1121   1.265       .  A
C1120      C1265   1.473       .  S
C1122      C1556   1.470   1_554  S
Fe1123     O1139   2.068       .  S
Fe1123     O1129   2.081       .  S
Fe1123     O1136   2.063       .  S
Fe1123     O1128   2.086       .  S
Fe1123     O1134   1.992       .  S
Fe1124     O1127   2.086       .  S
Fe1124     O1131   2.063       .  S
Fe1124     O1135   2.068       .  S
Fe1124     O1140   2.081       .  S
Fe1124     O1134   1.992       .  S
Fe1125     O1143   2.042       .  S
Fe1125     O1130   2.049       .  S
Fe1125     O1137   2.049       .  S
Fe1125     O1126   2.042       .  S
Fe1125     O1134   1.953       .  S
O1126      C1133   1.265       .  A
O1127      C1141   1.271       .  A
O1128      C1133   1.271       .  A
O1129      C1132   1.270       .  A
O1130      C1142   1.267       .  A
O1131      C1144   1.269       .  A
C1132      O1137   1.267       .  A
C1132      C1199   1.473       .  S
O1135      C1138   1.271       .  A
O1136      C1138   1.269       .  A
C1138      C1424   1.470   1_554  S
O1139      C1144   1.271       .  A
O1140      C1142   1.270       .  A
C1141      O1143   1.265       .  A
C1141      C1186   1.473       .  S
C1144      C1644   1.470   1_545  S
Fe1145     O1161   2.068       .  S
Fe1145     O1151   2.081       .  S
Fe1145     O1158   2.063       .  S
Fe1145     O1150   2.085       .  S
Fe1145     O1156   1.992       .  S
Fe1146     O1149   2.086       .  S
Fe1146     O1153   2.063       .  S
Fe1146     O1157   2.068       .  S
Fe1146     O1162   2.081       .  S
Fe1146     O1156   1.992       .  S
Fe1147     O1165   2.042       .  S
Fe1147     O1152   2.049       .  S
Fe1147     O1159   2.049       .  S
Fe1147     O1148   2.042       .  S
Fe1147     O1156   1.953       .  S
O1148      C1155   1.265       .  A
O1149      C1163   1.271       .  A
O1150      C1155   1.271       .  A
O1151      C1154   1.270       .  A
O1152      C1164   1.267       .  A
O1153      C1166   1.269       .  A
C1154      O1159   1.267       .  A
C1154      C1177   1.473       .  S
C1155      C1318   1.472       .  S
O1157      C1160   1.271       .  A
O1158      C1160   1.269       .  A
C1160      C1402   1.470       .  S
O1161      C1166   1.271       .  A
O1162      C1164   1.270       .  A
C1163      O1165   1.265       .  A
C1163      C1208   1.473       .  S
C1164      C1221   1.473       .  S
C1166      C1826   1.470   1_545  S
Fe1167     O1183   2.068       .  S
Fe1167     O1173   2.081       .  S
Fe1167     O1180   2.063       .  S
Fe1167     O1172   2.086       .  S
Fe1167     O1178   1.992       .  S
Fe1168     O1171   2.085       .  S
Fe1168     O1175   2.063       .  S
Fe1168     O1179   2.068       .  S
Fe1168     O1184   2.082       .  S
Fe1168     O1178   1.992       .  S
Fe1169     O1187   2.043       .  S
Fe1169     O1174   2.048       .  S
Fe1169     O1181   2.048       .  S
Fe1169     O1170   2.043       .  S
Fe1169     O1178   1.953       .  S
O1170      C1177   1.265       .  A
O1171      C1185   1.271       .  A
O1172      C1177   1.271       .  A
O1173      C1176   1.270       .  A
O1174      C1186   1.267       .  A
O1175      C1188   1.269       .  A
C1176      O1181   1.267       .  A
C1176      C1317   1.473       .  S
O1179      C1182   1.271       .  A
O1180      C1182   1.269       .  A
C1182      C1798   1.470   1_545  S
O1183      C1188   1.271       .  A
O1184      C1186   1.270       .  A
C1185      O1187   1.265       .  A
Fe1189     O1205   2.068       .  S
Fe1189     O1195   2.081       .  S
Fe1189     O1202   2.063       .  S
Fe1189     O1194   2.086       .  S
Fe1189     O1200   1.992       .  S
Fe1190     O1193   2.086       .  S
Fe1190     O1197   2.063       .  S
Fe1190     O1201   2.068       .  S
Fe1190     O1206   2.081       .  S
Fe1190     O1200   1.992       .  S
Fe1191     O1209   2.043       .  S
Fe1191     O1196   2.049       .  S
Fe1191     O1203   2.049       .  S
Fe1191     O1192   2.043       .  S
Fe1191     O1200   1.953       .  S
O1192      C1199   1.265       .  A
O1193      C1207   1.271       .  A
O1194      C1199   1.271       .  A
O1195      C1198   1.270       .  A
O1196      C1208   1.267       .  A
O1197      C1210   1.269       .  A
C1198      O1203   1.267       .  A
O1201      C1204   1.271       .  A
O1202      C1204   1.269       .  A
C1204      C1782   1.470   1_545  S
O1205      C1210   1.271       .  A
O1206      C1208   1.270       .  A
C1207      O1209   1.265       .  A
C1207      C1220   1.473       .  S
Fe1211     O1227   2.068       .  S
Fe1211     O1217   2.081       .  S
Fe1211     O1224   2.063       .  S
Fe1211     O1216   2.086       .  S
Fe1211     O1222   1.992       .  S
Fe1212     O1215   2.086       .  S
Fe1212     O1219   2.063       .  S
Fe1212     O1223   2.068       .  S
Fe1212     O1228   2.081       .  S
Fe1212     O1222   1.992       .  S
Fe1213     O1231   2.042       .  S
Fe1213     O1218   2.049       .  S
Fe1213     O1225   2.049       .  S
Fe1213     O1214   2.042       .  S
Fe1213     O1222   1.953       .  S
O1214      C1221   1.265       .  A
O1215      C1229   1.271       .  A
O1216      C1221   1.271       .  A
O1217      C1220   1.270       .  A
O1218      C1230   1.267       .  A
O1219      C1232   1.269       .  A
C1220      O1225   1.268       .  A
O1223      C1226   1.271       .  A
O1224      C1226   1.269       .  A
C1226      C1336   1.470       .  S
O1227      C1232   1.270       .  A
O1228      C1230   1.270       .  A
C1229      O1231   1.265       .  A
C1229      C1252   1.473       .  S
C1230      C1287   1.472       .  S
Fe1233     O1249   2.068       .  S
Fe1233     O1239   2.081       .  S
Fe1233     O1246   2.063       .  S
Fe1233     O1238   2.086       .  S
Fe1233     O1244   1.992       .  S
Fe1234     O1237   2.086       .  S
Fe1234     O1241   2.063       .  S
Fe1234     O1245   2.068       .  S
Fe1234     O1250   2.082       .  S
Fe1234     O1244   1.992       .  S
Fe1235     O1253   2.043       .  S
Fe1235     O1240   2.049       .  S
Fe1235     O1247   2.048       .  S
Fe1235     O1236   2.043       .  S
Fe1235     O1244   1.953       .  S
O1236      C1243   1.265       .  A
O1237      C1251   1.271       .  A
O1238      C1243   1.271       .  A
O1239      C1242   1.270       .  A
O1240      C1252   1.267       .  A
O1241      C1254   1.269       .  A
C1242      O1247   1.267       .  A
O1245      C1248   1.271       .  A
O1246      C1248   1.269       .  A
O1249      C1254   1.271       .  A
O1250      C1252   1.270       .  A
C1251      O1253   1.265       .  A
C1251      C1286   1.473       .  S
C1254      C1732   1.470       .  S
Fe1255     O1271   2.068       .  S
Fe1255     O1261   2.082       .  S
Fe1255     O1268   2.063       .  S
Fe1255     O1260   2.086       .  S
Fe1255     O1266   1.992       .  S
Fe1256     O1259   2.086       .  S
Fe1256     O1263   2.063       .  S
Fe1256     O1267   2.068       .  S
Fe1256     O1272   2.081       .  S
Fe1256     O1266   1.992       .  S
Fe1257     O1275   2.043       .  S
Fe1257     O1262   2.049       .  S
Fe1257     O1269   2.049       .  S
Fe1257     O1258   2.043       .  S
Fe1257     O1266   1.953       .  S
O1258      C1265   1.265       .  A
O1259      C1273   1.271       .  A
O1260      C1265   1.271       .  A
O1261      C1264   1.270       .  A
O1262      C1274   1.267       .  A
O1263      C1276   1.269       .  A
C1264      O1269   1.267       .  A
O1267      C1270   1.271       .  A
O1268      C1270   1.269       .  A
C1270      C1710   1.470       .  S
O1271      C1276   1.270       .  A
O1272      C1274   1.270       .  A
C1273      O1275   1.265       .  A
C1273      C1308   1.473       .  S
C1274      C1295   1.473       .  S
Fe1277     O1293   2.068       .  S
Fe1277     O1283   2.081       .  S
Fe1277     O1290   2.063       .  S
Fe1277     O1282   2.086       .  S
Fe1277     O1288   1.992       .  S
Fe1278     O1281   2.086       .  S
Fe1278     O1285   2.063       .  S
Fe1278     O1289   2.068       .  S
Fe1278     O1294   2.081       .  S
Fe1278     O1288   1.992       .  S
Fe1279     O1297   2.042       .  S
Fe1279     O1284   2.049       .  S
Fe1279     O1291   2.049       .  S
Fe1279     O1280   2.042       .  S
Fe1279     O1288   1.953       .  S
O1280      C1287   1.265       .  A
O1281      C1295   1.271       .  A
O1282      C1287   1.271       .  A
O1283      C1286   1.270       .  A
O1284      C1296   1.267       .  A
O1285      C1298   1.269       .  A
C1286      O1291   1.268       .  A
O1289      C1292   1.271       .  A
O1290      C1292   1.269       .  A
C1292      C1386   1.470       .  S
O1293      C1298   1.271       .  A
O1294      C1296   1.270       .  A
C1295      O1297   1.265       .  A
C1296      C1309   1.473       .  S
C1298      C1694   1.470       .  S
Fe1299     O1315   2.068       .  S
Fe1299     O1305   2.082       .  S
Fe1299     O1312   2.064       .  S
Fe1299     O1304   2.085       .  S
Fe1299     O1310   1.992       .  S
Fe1300     O1303   2.086       .  S
Fe1300     O1307   2.063       .  S
Fe1300     O1311   2.068       .  S
Fe1300     O1316   2.081       .  S
Fe1300     O1310   1.992       .  S
Fe1301     O1319   2.043       .  S
Fe1301     O1306   2.048       .  S
Fe1301     O1313   2.049       .  S
Fe1301     O1302   2.043       .  S
Fe1301     O1310   1.953       .  S
O1302      C1309   1.265       .  A
O1303      C1317   1.271       .  A
O1304      C1309   1.271       .  A
O1305      C1308   1.270       .  A
O1306      C1318   1.267       .  A
O1307      C1320   1.269       .  A
C1308      O1313   1.267       .  A
O1311      C1314   1.271       .  A
O1312      C1314   1.269       .  A
C1314      C1358   1.470       .  S
O1315      C1320   1.270       .  A
O1316      C1318   1.270       .  A
C1317      O1319   1.265       .  A
Fe1321     O1337   2.068       .  S
Fe1321     O1327   2.082       .  S
Fe1321     O1334   2.063       .  S
Fe1321     O1326   2.085       .  S
Fe1321     O1332   1.992       .  S
Fe1322     O1325   2.085       .  S
Fe1322     O1329   2.063       .  S
Fe1322     O1333   2.068       .  S
Fe1322     O1338   2.082       .  S
Fe1322     O1332   1.992       .  S
Fe1323     O1341   2.043       .  S
Fe1323     O1328   2.048       .  S
Fe1323     O1335   2.048       .  S
Fe1323     O1324   2.043       .  S
Fe1323     O1332   1.953       .  S
O1324      C1331   1.265       .  A
O1325      C1339   1.271       .  A
O1326      C1331   1.271       .  A
O1327      C1330   1.270       .  A
O1328      C1340   1.267       .  A
O1329      C1342   1.269       .  A
C1330      O1335   1.267       .  A
C1330      C1507   1.473       .  S
C1331      C1374   1.473       .  S
O1333      C1336   1.271       .  A
O1334      C1336   1.269       .  A
O1337      C1342   1.271       .  A
O1338      C1340   1.270       .  A
C1339      O1341   1.265       .  A
C1339      C1462   1.473       .  S
C1340      C1397   1.473       .  S
Fe1343     O1359   2.068       .  S
Fe1343     O1349   2.081       .  S
Fe1343     O1356   2.064       .  S
Fe1343     O1348   2.086       .  S
Fe1343     O1354   1.992       .  S
Fe1344     O1347   2.086       .  S
Fe1344     O1351   2.063       .  S
Fe1344     O1355   2.068       .  S
Fe1344     O1360   2.081       .  S
Fe1344     O1354   1.992       .  S
Fe1345     O1363   2.043       .  S
Fe1345     O1350   2.049       .  S
Fe1345     O1357   2.049       .  S
Fe1345     O1346   2.043       .  S
Fe1345     O1354   1.953       .  S
O1346      C1353   1.265       .  A
O1347      C1361   1.271       .  A
O1348      C1353   1.271       .  A
O1349      C1352   1.270       .  A
O1350      C1362   1.267       .  A
O1351      C1364   1.269       .  A
C1352      O1357   1.267       .  A
C1352      C1449   1.473       .  S
C1353      C1406   1.473       .  S
O1355      C1358   1.271       .  A
O1356      C1358   1.269       .  A
O1359      C1364   1.271       .  A
O1360      C1362   1.270       .  A
C1361      O1363   1.265       .  A
C1361      C1528   1.473       .  S
C1362      C1383   1.472       .  S
Fe1365     O1381   2.068       .  S
Fe1365     O1371   2.081       .  S
Fe1365     O1378   2.063       .  S
Fe1365     O1370   2.085       .  S
Fe1365     O1376   1.992       .  S
Fe1366     O1369   2.085       .  S
Fe1366     O1373   2.063       .  S
Fe1366     O1377   2.068       .  S
Fe1366     O1382   2.082       .  S
Fe1366     O1376   1.992       .  S
Fe1367     O1385   2.043       .  S
Fe1367     O1372   2.048       .  S
Fe1367     O1379   2.049       .  S
Fe1367     O1368   2.043       .  S
Fe1367     O1376   1.953       .  S
O1368      C1375   1.265       .  A
O1369      C1383   1.271       .  A
O1370      C1375   1.271       .  A
O1371      C1374   1.270       .  A
O1372      C1384   1.267       .  A
O1373      C1386   1.269       .  A
C1374      O1379   1.267       .  A
C1375      C1506   1.473       .  S
O1377      C1380   1.271       .  A
O1378      C1380   1.269       .  A
C1380      C1936   1.470       .  S
O1381      C1386   1.271       .  A
O1382      C1384   1.270       .  A
C1383      O1385   1.265       .  A
C1384      C1529   1.473       .  S
Fe1387     O1403   2.068       .  S
Fe1387     O1393   2.081       .  S
Fe1387     O1400   2.063       .  S
Fe1387     O1392   2.086       .  S
Fe1387     O1398   1.992       .  S
Fe1388     O1391   2.086       .  S
Fe1388     O1395   2.063       .  S
Fe1388     O1399   2.068       .  S
Fe1388     O1404   2.081       .  S
Fe1388     O1398   1.992       .  S
Fe1389     O1407   2.042       .  S
Fe1389     O1394   2.049       .  S
Fe1389     O1401   2.049       .  S
Fe1389     O1390   2.042       .  S
Fe1389     O1398   1.953       .  S
O1390      C1397   1.265       .  A
O1391      C1405   1.271       .  A
O1392      C1397   1.271       .  A
O1393      C1396   1.270       .  A
O1394      C1406   1.267       .  A
O1395      C1408   1.269       .  A
C1396      O1401   1.267       .  A
C1396      C1463   1.473       .  S
O1399      C1402   1.271       .  A
O1400      C1402   1.269       .  A
O1403      C1408   1.271       .  A
O1404      C1406   1.270       .  A
C1405      O1407   1.265       .  A
C1405      C1450   1.473       .  S
C1408      C1908   1.470   1_545  S
Fe1409     O1425   2.068       .  S
Fe1409     O1415   2.081       .  S
Fe1409     O1422   2.063       .  S
Fe1409     O1414   2.085       .  S
Fe1409     O1420   1.992       .  S
Fe1410     O1413   2.086       .  S
Fe1410     O1417   2.063       .  S
Fe1410     O1421   2.068       .  S
Fe1410     O1426   2.081       .  S
Fe1410     O1420   1.992       .  S
Fe1411     O1429   2.042       .  S
Fe1411     O1416   2.049       .  S
Fe1411     O1423   2.049       .  S
Fe1411     O1412   2.042       .  S
Fe1411     O1420   1.953       .  S
O1412      C1419   1.265       .  A
O1413      C1427   1.271       .  A
O1414      C1419   1.271       .  A
O1415      C1418   1.270       .  A
O1416      C1428   1.267       .  A
O1417      C1430   1.269       .  A
C1418      O1423   1.267       .  A
C1418      C1441   1.473       .  S
C1419      C1582   1.472       .  S
O1421      C1424   1.271       .  A
O1422      C1424   1.269       .  A
O1425      C1430   1.271       .  A
O1426      C1428   1.270       .  A
C1427      O1429   1.265       .  A
C1427      C1472   1.473       .  S
C1428      C1485   1.473       .  S
C1430      C2090   1.470   1_545  S
Fe1431     O1447   2.068       .  S
Fe1431     O1437   2.081       .  S
Fe1431     O1444   2.063       .  S
Fe1431     O1436   2.086       .  S
Fe1431     O1442   1.992       .  S
Fe1432     O1435   2.085       .  S
Fe1432     O1439   2.063       .  S
Fe1432     O1443   2.068       .  S
Fe1432     O1448   2.082       .  S
Fe1432     O1442   1.992       .  S
Fe1433     O1451   2.043       .  S
Fe1433     O1438   2.048       .  S
Fe1433     O1445   2.048       .  S
Fe1433     O1434   2.043       .  S
Fe1433     O1442   1.953       .  S
O1434      C1441   1.265       .  A
O1435      C1449   1.271       .  A
O1436      C1441   1.271       .  A
O1437      C1440   1.270       .  A
O1438      C1450   1.267       .  A
O1439      C1452   1.269       .  A
C1440      O1445   1.267       .  A
C1440      C1581   1.473       .  S
O1443      C1446   1.271       .  A
O1444      C1446   1.269       .  A
C1446      C2062   1.470   1_545  S
O1447      C1452   1.271       .  A
O1448      C1450   1.270       .  A
C1449      O1451   1.265       .  A
Fe1453     O1469   2.068       .  S
Fe1453     O1459   2.081       .  S
Fe1453     O1466   2.063       .  S
Fe1453     O1458   2.086       .  S
Fe1453     O1464   1.992       .  S
Fe1454     O1457   2.086       .  S
Fe1454     O1461   2.063       .  S
Fe1454     O1465   2.068       .  S
Fe1454     O1470   2.081       .  S
Fe1454     O1464   1.992       .  S
Fe1455     O1473   2.043       .  S
Fe1455     O1460   2.049       .  S
Fe1455     O1467   2.049       .  S
Fe1455     O1456   2.043       .  S
Fe1455     O1464   1.953       .  S
O1456      C1463   1.265       .  A
O1457      C1471   1.271       .  A
O1458      C1463   1.271       .  A
O1459      C1462   1.270       .  A
O1460      C1472   1.267       .  A
O1461      C1474   1.269       .  A
C1462      O1467   1.267       .  A
O1465      C1468   1.271       .  A
O1466      C1468   1.269       .  A
C1468      C2046   1.470   1_545  S
O1469      C1474   1.271       .  A
O1470      C1472   1.270       .  A
C1471      O1473   1.265       .  A
C1471      C1484   1.473       .  S
Fe1475     O1491   2.068       .  S
Fe1475     O1481   2.081       .  S
Fe1475     O1488   2.063       .  S
Fe1475     O1480   2.086       .  S
Fe1475     O1486   1.992       .  S
Fe1476     O1479   2.086       .  S
Fe1476     O1483   2.063       .  S
Fe1476     O1487   2.068       .  S
Fe1476     O1492   2.081       .  S
Fe1476     O1486   1.992       .  S
Fe1477     O1495   2.042       .  S
Fe1477     O1482   2.049       .  S
Fe1477     O1489   2.049       .  S
Fe1477     O1478   2.042       .  S
Fe1477     O1486   1.953       .  S
O1478      C1485   1.265       .  A
O1479      C1493   1.271       .  A
O1480      C1485   1.271       .  A
O1481      C1484   1.270       .  A
O1482      C1494   1.267       .  A
O1483      C1496   1.269       .  A
C1484      O1489   1.268       .  A
O1487      C1490   1.271       .  A
O1488      C1490   1.269       .  A
O1491      C1496   1.270       .  A
O1492      C1494   1.270       .  A
C1493      O1495   1.265       .  A
C1493      C1516   1.473       .  S
C1494      C1551   1.472       .  S
Fe1497     O1513   2.068       .  S
Fe1497     O1503   2.081       .  S
Fe1497     O1510   2.063       .  S
Fe1497     O1502   2.086       .  S
Fe1497     O1508   1.992       .  S
Fe1498     O1501   2.086       .  S
Fe1498     O1505   2.063       .  S
Fe1498     O1509   2.068       .  S
Fe1498     O1514   2.082       .  S
Fe1498     O1508   1.992       .  S
Fe1499     O1517   2.043       .  S
Fe1499     O1504   2.049       .  S
Fe1499     O1511   2.048       .  S
Fe1499     O1500   2.043       .  S
Fe1499     O1508   1.953       .  S
O1500      C1507   1.265       .  A
O1501      C1515   1.271       .  A
O1502      C1507   1.271       .  A
O1503      C1506   1.270       .  A
O1504      C1516   1.267       .  A
O1505      C1518   1.269       .  A
C1506      O1511   1.267       .  A
O1509      C1512   1.271       .  A
O1510      C1512   1.269       .  A
O1513      C1518   1.271       .  A
O1514      C1516   1.270       .  A
C1515      O1517   1.265       .  A
C1515      C1550   1.473       .  S
C1518      C1996   1.470       .  S
Fe1519     O1535   2.068       .  S
Fe1519     O1525   2.082       .  S
Fe1519     O1532   2.063       .  S
Fe1519     O1524   2.086       .  S
Fe1519     O1530   1.992       .  S
Fe1520     O1523   2.086       .  S
Fe1520     O1527   2.063       .  S
Fe1520     O1531   2.068       .  S
Fe1520     O1536   2.081       .  S
Fe1520     O1530   1.992       .  S
Fe1521     O1539   2.043       .  S
Fe1521     O1526   2.049       .  S
Fe1521     O1533   2.049       .  S
Fe1521     O1522   2.043       .  S
Fe1521     O1530   1.953       .  S
O1522      C1529   1.265       .  A
O1523      C1537   1.271       .  A
O1524      C1529   1.271       .  A
O1525      C1528   1.270       .  A
O1526      C1538   1.267       .  A
O1527      C1540   1.269       .  A
C1528      O1533   1.267       .  A
O1531      C1534   1.271       .  A
O1532      C1534   1.269       .  A
C1534      C1974   1.470       .  S
O1535      C1540   1.270       .  A
O1536      C1538   1.270       .  A
C1537      O1539   1.265       .  A
C1537      C1572   1.473       .  S
C1538      C1559   1.473       .  S
Fe1541     O1557   2.068       .  S
Fe1541     O1547   2.081       .  S
Fe1541     O1554   2.063       .  S
Fe1541     O1546   2.086       .  S
Fe1541     O1552   1.992       .  S
Fe1542     O1545   2.086       .  S
Fe1542     O1549   2.063       .  S
Fe1542     O1553   2.068       .  S
Fe1542     O1558   2.081       .  S
Fe1542     O1552   1.992       .  S
Fe1543     O1561   2.042       .  S
Fe1543     O1548   2.049       .  S
Fe1543     O1555   2.049       .  S
Fe1543     O1544   2.042       .  S
Fe1543     O1552   1.953       .  S
O1544      C1551   1.265       .  A
O1545      C1559   1.271       .  A
O1546      C1551   1.271       .  A
O1547      C1550   1.270       .  A
O1548      C1560   1.267       .  A
O1549      C1562   1.269       .  A
C1550      O1555   1.268       .  A
O1553      C1556   1.271       .  A
O1554      C1556   1.269       .  A
O1557      C1562   1.271       .  A
O1558      C1560   1.270       .  A
C1559      O1561   1.265       .  A
C1560      C1573   1.473       .  S
C1562      C1958   1.470       .  S
Fe1563     O1579   2.068       .  S
Fe1563     O1569   2.082       .  S
Fe1563     O1576   2.064       .  S
Fe1563     O1568   2.085       .  S
Fe1563     O1574   1.992       .  S
Fe1564     O1567   2.086       .  S
Fe1564     O1571   2.063       .  S
Fe1564     O1575   2.068       .  S
Fe1564     O1580   2.081       .  S
Fe1564     O1574   1.992       .  S
Fe1565     O1583   2.043       .  S
Fe1565     O1570   2.048       .  S
Fe1565     O1577   2.049       .  S
Fe1565     O1566   2.043       .  S
Fe1565     O1574   1.953       .  S
O1566      C1573   1.265       .  A
O1567      C1581   1.271       .  A
O1568      C1573   1.271       .  A
O1569      C1572   1.270       .  A
O1570      C1582   1.267       .  A
O1571      C1584   1.269       .  A
C1572      O1577   1.267       .  A
O1575      C1578   1.271       .  A
O1576      C1578   1.269       .  A
O1579      C1584   1.270       .  A
O1580      C1582   1.270       .  A
C1581      O1583   1.265       .  A
Fe1585     O1601   2.068       .  S
Fe1585     O1591   2.082       .  S
Fe1585     O1598   2.063       .  S
Fe1585     O1590   2.085       .  S
Fe1585     O1596   1.992       .  S
Fe1586     O1589   2.085       .  S
Fe1586     O1593   2.063       .  S
Fe1586     O1597   2.068       .  S
Fe1586     O1602   2.082       .  S
Fe1586     O1596   1.992       .  S
Fe1587     O1605   2.043       .  S
Fe1587     O1592   2.048       .  S
Fe1587     O1599   2.048       .  S
Fe1587     O1588   2.043       .  S
Fe1587     O1596   1.953       .  S
O1588      C1595   1.265       .  A
O1589      C1603   1.271       .  A
O1590      C1595   1.271       .  A
O1591      C1594   1.270       .  A
O1592      C1604   1.267       .  A
O1593      C1606   1.269       .  A
C1594      O1599   1.267       .  A
C1594      C1771   1.473       .  S
C1595      C1638   1.473       .  S
O1597      C1600   1.271       .  A
O1598      C1600   1.269       .  A
C1600      C2018   1.470   1_554  S
O1601      C1606   1.271       .  A
O1602      C1604   1.270       .  A
C1603      O1605   1.265       .  A
C1603      C1726   1.473       .  S
C1604      C1661   1.473       .  S
Fe1607     O1623   2.068       .  S
Fe1607     O1613   2.081       .  S
Fe1607     O1620   2.064       .  S
Fe1607     O1612   2.086       .  S
Fe1607     O1618   1.992       .  S
Fe1608     O1611   2.086       .  S
Fe1608     O1615   2.063       .  S
Fe1608     O1619   2.068       .  S
Fe1608     O1624   2.081       .  S
Fe1608     O1618   1.992       .  S
Fe1609     O1627   2.043       .  S
Fe1609     O1614   2.049       .  S
Fe1609     O1621   2.049       .  S
Fe1609     O1610   2.043       .  S
Fe1609     O1618   1.953       .  S
O1610      C1617   1.265       .  A
O1611      C1625   1.271       .  A
O1612      C1617   1.271       .  A
O1613      C1616   1.270       .  A
O1614      C1626   1.267       .  A
O1615      C1628   1.269       .  A
C1616      O1621   1.267       .  A
C1616      C1713   1.473       .  S
C1617      C1670   1.473       .  S
O1619      C1622   1.271       .  A
O1620      C1622   1.269       .  A
C1622      C2106   1.470   1_554  S
O1623      C1628   1.271       .  A
O1624      C1626   1.270       .  A
C1625      O1627   1.265       .  A
C1625      C1792   1.473       .  S
C1626      C1647   1.472       .  S
Fe1629     O1645   2.068       .  S
Fe1629     O1635   2.081       .  S
Fe1629     O1642   2.063       .  S
Fe1629     O1634   2.085       .  S
Fe1629     O1640   1.992       .  S
Fe1630     O1633   2.085       .  S
Fe1630     O1637   2.063       .  S
Fe1630     O1641   2.068       .  S
Fe1630     O1646   2.082       .  S
Fe1630     O1640   1.992       .  S
Fe1631     O1649   2.043       .  S
Fe1631     O1636   2.048       .  S
Fe1631     O1643   2.049       .  S
Fe1631     O1632   2.043       .  S
Fe1631     O1640   1.953       .  S
O1632      C1639   1.265       .  A
O1633      C1647   1.271       .  A
O1634      C1639   1.271       .  A
O1635      C1638   1.270       .  A
O1636      C1648   1.267       .  A
O1637      C1650   1.269       .  A
C1638      O1643   1.267       .  A
C1639      C1770   1.473       .  S
O1641      C1644   1.271       .  A
O1642      C1644   1.269       .  A
O1645      C1650   1.271       .  A
O1646      C1648   1.270       .  A
C1647      O1649   1.265       .  A
C1648      C1793   1.473       .  S
C1650      C2084   1.470   1_554  S
Fe1651     O1667   2.068       .  S
Fe1651     O1657   2.081       .  S
Fe1651     O1664   2.063       .  S
Fe1651     O1656   2.086       .  S
Fe1651     O1662   1.992       .  S
Fe1652     O1655   2.086       .  S
Fe1652     O1659   2.063       .  S
Fe1652     O1663   2.068       .  S
Fe1652     O1668   2.081       .  S
Fe1652     O1662   1.992       .  S
Fe1653     O1671   2.042       .  S
Fe1653     O1658   2.049       .  S
Fe1653     O1665   2.049       .  S
Fe1653     O1654   2.042       .  S
Fe1653     O1662   1.953       .  S
O1654      C1661   1.265       .  A
O1655      C1669   1.271       .  A
O1656      C1661   1.271       .  A
O1657      C1660   1.270       .  A
O1658      C1670   1.267       .  A
O1659      C1672   1.269       .  A
C1660      O1665   1.267       .  A
C1660      C1727   1.473       .  S
O1663      C1666   1.271       .  A
O1664      C1666   1.269       .  A
C1666      C1952   1.470   1_554  S
O1667      C1672   1.271       .  A
O1668      C1670   1.270       .  A
C1669      O1671   1.265       .  A
C1669      C1714   1.473       .  S
Fe1673     O1689   2.068       .  S
Fe1673     O1679   2.081       .  S
Fe1673     O1686   2.063       .  S
Fe1673     O1678   2.085       .  S
Fe1673     O1684   1.992       .  S
Fe1674     O1677   2.086       .  S
Fe1674     O1681   2.063       .  S
Fe1674     O1685   2.068       .  S
Fe1674     O1690   2.081       .  S
Fe1674     O1684   1.992       .  S
Fe1675     O1693   2.042       .  S
Fe1675     O1680   2.049       .  S
Fe1675     O1687   2.049       .  S
Fe1675     O1676   2.042       .  S
Fe1675     O1684   1.953       .  S
O1676      C1683   1.265       .  A
O1677      C1691   1.271       .  A
O1678      C1683   1.271       .  A
O1679      C1682   1.270       .  A
O1680      C1692   1.267       .  A
O1681      C1694   1.269       .  A
C1682      O1687   1.267       .  A
C1682      C1705   1.473       .  S
C1683      C1846   1.472       .  S
O1685      C1688   1.271       .  A
O1686      C1688   1.269       .  A
C1688      C1930   1.470       .  S
O1689      C1694   1.271       .  A
O1690      C1692   1.270       .  A
C1691      O1693   1.265       .  A
C1691      C1736   1.473       .  S
C1692      C1749   1.473       .  S
Fe1695     O1711   2.068       .  S
Fe1695     O1701   2.081       .  S
Fe1695     O1708   2.063       .  S
Fe1695     O1700   2.086       .  S
Fe1695     O1706   1.992       .  S
Fe1696     O1699   2.085       .  S
Fe1696     O1703   2.063       .  S
Fe1696     O1707   2.068       .  S
Fe1696     O1712   2.082       .  S
Fe1696     O1706   1.992       .  S
Fe1697     O1715   2.043       .  S
Fe1697     O1702   2.048       .  S
Fe1697     O1709   2.048       .  S
Fe1697     O1698   2.043       .  S
Fe1697     O1706   1.953       .  S
O1698      C1705   1.265       .  A
O1699      C1713   1.271       .  A
O1700      C1705   1.271       .  A
O1701      C1704   1.270       .  A
O1702      C1714   1.267       .  A
O1703      C1716   1.269       .  A
C1704      O1709   1.267       .  A
C1704      C1845   1.473       .  S
O1707      C1710   1.271       .  A
O1708      C1710   1.269       .  A
O1711      C1716   1.271       .  A
O1712      C1714   1.270       .  A
C1713      O1715   1.265       .  A
Fe1717     O1733   2.068       .  S
Fe1717     O1723   2.081       .  S
Fe1717     O1730   2.063       .  S
Fe1717     O1722   2.086       .  S
Fe1717     O1728   1.992       .  S
Fe1718     O1721   2.086       .  S
Fe1718     O1725   2.063       .  S
Fe1718     O1729   2.068       .  S
Fe1718     O1734   2.081       .  S
Fe1718     O1728   1.992       .  S
Fe1719     O1737   2.043       .  S
Fe1719     O1724   2.049       .  S
Fe1719     O1731   2.049       .  S
Fe1719     O1720   2.043       .  S
Fe1719     O1728   1.953       .  S
O1720      C1727   1.265       .  A
O1721      C1735   1.271       .  A
O1722      C1727   1.271       .  A
O1723      C1726   1.270       .  A
O1724      C1736   1.267       .  A
O1725      C1738   1.269       .  A
C1726      O1731   1.267       .  A
O1729      C1732   1.271       .  A
O1730      C1732   1.269       .  A
O1733      C1738   1.271       .  A
O1734      C1736   1.270       .  A
C1735      O1737   1.265       .  A
C1735      C1748   1.473       .  S
Fe1739     O1755   2.068       .  S
Fe1739     O1745   2.081       .  S
Fe1739     O1752   2.063       .  S
Fe1739     O1744   2.086       .  S
Fe1739     O1750   1.992       .  S
Fe1740     O1743   2.086       .  S
Fe1740     O1747   2.063       .  S
Fe1740     O1751   2.068       .  S
Fe1740     O1756   2.081       .  S
Fe1740     O1750   1.992       .  S
Fe1741     O1759   2.042       .  S
Fe1741     O1746   2.049       .  S
Fe1741     O1753   2.049       .  S
Fe1741     O1742   2.042       .  S
Fe1741     O1750   1.953       .  S
O1742      C1749   1.265       .  A
O1743      C1757   1.271       .  A
O1744      C1749   1.271       .  A
O1745      C1748   1.270       .  A
O1746      C1758   1.267       .  A
O1747      C1760   1.269       .  A
C1748      O1753   1.268       .  A
O1751      C1754   1.271       .  A
O1752      C1754   1.269       .  A
C1754      C1864   1.470       .  S
O1755      C1760   1.270       .  A
O1756      C1758   1.270       .  A
C1757      O1759   1.265       .  A
C1757      C1780   1.473       .  S
C1758      C1815   1.472       .  S
Fe1761     O1777   2.068       .  S
Fe1761     O1767   2.081       .  S
Fe1761     O1774   2.063       .  S
Fe1761     O1766   2.086       .  S
Fe1761     O1772   1.992       .  S
Fe1762     O1765   2.086       .  S
Fe1762     O1769   2.063       .  S
Fe1762     O1773   2.068       .  S
Fe1762     O1778   2.082       .  S
Fe1762     O1772   1.992       .  S
Fe1763     O1781   2.043       .  S
Fe1763     O1768   2.049       .  S
Fe1763     O1775   2.048       .  S
Fe1763     O1764   2.043       .  S
Fe1763     O1772   1.953       .  S
O1764      C1771   1.265       .  A
O1765      C1779   1.271       .  A
O1766      C1771   1.271       .  A
O1767      C1770   1.270       .  A
O1768      C1780   1.267       .  A
O1769      C1782   1.269       .  A
C1770      O1775   1.267       .  A
O1773      C1776   1.271       .  A
O1774      C1776   1.269       .  A
O1777      C1782   1.271       .  A
O1778      C1780   1.270       .  A
C1779      O1781   1.265       .  A
C1779      C1814   1.473       .  S
Fe1783     O1799   2.068       .  S
Fe1783     O1789   2.082       .  S
Fe1783     O1796   2.063       .  S
Fe1783     O1788   2.086       .  S
Fe1783     O1794   1.992       .  S
Fe1784     O1787   2.086       .  S
Fe1784     O1791   2.063       .  S
Fe1784     O1795   2.068       .  S
Fe1784     O1800   2.081       .  S
Fe1784     O1794   1.992       .  S
Fe1785     O1803   2.043       .  S
Fe1785     O1790   2.049       .  S
Fe1785     O1797   2.049       .  S
Fe1785     O1786   2.043       .  S
Fe1785     O1794   1.953       .  S
O1786      C1793   1.265       .  A
O1787      C1801   1.271       .  A
O1788      C1793   1.271       .  A
O1789      C1792   1.270       .  A
O1790      C1802   1.267       .  A
O1791      C1804   1.269       .  A
C1792      O1797   1.267       .  A
O1795      C1798   1.271       .  A
O1796      C1798   1.269       .  A
O1799      C1804   1.270       .  A
O1800      C1802   1.270       .  A
C1801      O1803   1.265       .  A
C1801      C1836   1.473       .  S
C1802      C1823   1.473       .  S
Fe1805     O1821   2.068       .  S
Fe1805     O1811   2.081       .  S
Fe1805     O1818   2.063       .  S
Fe1805     O1810   2.086       .  S
Fe1805     O1816   1.992       .  S
Fe1806     O1809   2.086       .  S
Fe1806     O1813   2.063       .  S
Fe1806     O1817   2.068       .  S
Fe1806     O1822   2.081       .  S
Fe1806     O1816   1.992       .  S
Fe1807     O1825   2.042       .  S
Fe1807     O1812   2.049       .  S
Fe1807     O1819   2.049       .  S
Fe1807     O1808   2.042       .  S
Fe1807     O1816   1.953       .  S
O1808      C1815   1.265       .  A
O1809      C1823   1.271       .  A
O1810      C1815   1.271       .  A
O1811      C1814   1.270       .  A
O1812      C1824   1.267       .  A
O1813      C1826   1.269       .  A
C1814      O1819   1.268       .  A
O1817      C1820   1.271       .  A
O1818      C1820   1.269       .  A
C1820      C1914   1.470       .  S
O1821      C1826   1.271       .  A
O1822      C1824   1.270       .  A
C1823      O1825   1.265       .  A
C1824      C1837   1.473       .  S
Fe1827     O1843   2.068       .  S
Fe1827     O1833   2.082       .  S
Fe1827     O1840   2.064       .  S
Fe1827     O1832   2.085       .  S
Fe1827     O1838   1.992       .  S
Fe1828     O1831   2.086       .  S
Fe1828     O1835   2.063       .  S
Fe1828     O1839   2.068       .  S
Fe1828     O1844   2.081       .  S
Fe1828     O1838   1.992       .  S
Fe1829     O1847   2.043       .  S
Fe1829     O1834   2.048       .  S
Fe1829     O1841   2.049       .  S
Fe1829     O1830   2.043       .  S
Fe1829     O1838   1.953       .  S
O1830      C1837   1.265       .  A
O1831      C1845   1.271       .  A
O1832      C1837   1.271       .  A
O1833      C1836   1.270       .  A
O1834      C1846   1.267       .  A
O1835      C1848   1.269       .  A
C1836      O1841   1.267       .  A
O1839      C1842   1.271       .  A
O1840      C1842   1.269       .  A
C1842      C1886   1.470       .  S
O1843      C1848   1.270       .  A
O1844      C1846   1.270       .  A
C1845      O1847   1.265       .  A
Fe1849     O1865   2.068       .  S
Fe1849     O1855   2.082       .  S
Fe1849     O1862   2.063       .  S
Fe1849     O1854   2.085       .  S
Fe1849     O1860   1.992       .  S
Fe1850     O1853   2.085       .  S
Fe1850     O1857   2.063       .  S
Fe1850     O1861   2.068       .  S
Fe1850     O1866   2.082       .  S
Fe1850     O1860   1.992       .  S
Fe1851     O1869   2.043       .  S
Fe1851     O1856   2.048       .  S
Fe1851     O1863   2.048       .  S
Fe1851     O1852   2.043       .  S
Fe1851     O1860   1.953       .  S
O1852      C1859   1.265       .  A
O1853      C1867   1.271       .  A
O1854      C1859   1.271       .  A
O1855      C1858   1.270       .  A
O1856      C1868   1.267       .  A
O1857      C1870   1.269       .  A
C1858      O1863   1.267       .  A
C1858      C2035   1.473       .  S
C1859      C1902   1.473       .  S
O1861      C1864   1.271       .  A
O1862      C1864   1.269       .  A
O1865      C1870   1.271       .  A
O1866      C1868   1.270       .  A
C1867      O1869   1.265       .  A
C1867      C1990   1.473       .  S
C1868      C1925   1.473       .  S
Fe1871     O1887   2.068       .  S
Fe1871     O1877   2.081       .  S
Fe1871     O1884   2.064       .  S
Fe1871     O1876   2.086       .  S
Fe1871     O1882   1.992       .  S
Fe1872     O1875   2.086       .  S
Fe1872     O1879   2.063       .  S
Fe1872     O1883   2.068       .  S
Fe1872     O1888   2.081       .  S
Fe1872     O1882   1.992       .  S
Fe1873     O1891   2.043       .  S
Fe1873     O1878   2.049       .  S
Fe1873     O1885   2.049       .  S
Fe1873     O1874   2.043       .  S
Fe1873     O1882   1.953       .  S
O1874      C1881   1.265       .  A
O1875      C1889   1.271       .  A
O1876      C1881   1.271       .  A
O1877      C1880   1.270       .  A
O1878      C1890   1.267       .  A
O1879      C1892   1.269       .  A
C1880      O1885   1.267       .  A
C1880      C1977   1.473       .  S
C1881      C1934   1.473       .  S
O1883      C1886   1.271       .  A
O1884      C1886   1.269       .  A
O1887      C1892   1.271       .  A
O1888      C1890   1.270       .  A
C1889      O1891   1.265       .  A
C1889      C2056   1.473       .  S
C1890      C1911   1.472       .  S
Fe1893     O1909   2.068       .  S
Fe1893     O1899   2.081       .  S
Fe1893     O1906   2.063       .  S
Fe1893     O1898   2.085       .  S
Fe1893     O1904   1.992       .  S
Fe1894     O1897   2.085       .  S
Fe1894     O1901   2.063       .  S
Fe1894     O1905   2.068       .  S
Fe1894     O1910   2.082       .  S
Fe1894     O1904   1.992       .  S
Fe1895     O1913   2.043       .  S
Fe1895     O1900   2.048       .  S
Fe1895     O1907   2.049       .  S
Fe1895     O1896   2.043       .  S
Fe1895     O1904   1.953       .  S
O1896      C1903   1.265       .  A
O1897      C1911   1.271       .  A
O1898      C1903   1.271       .  A
O1899      C1902   1.270       .  A
O1900      C1912   1.267       .  A
O1901      C1914   1.269       .  A
C1902      O1907   1.267       .  A
C1903      C2034   1.473       .  S
O1905      C1908   1.271       .  A
O1906      C1908   1.269       .  A
O1909      C1914   1.271       .  A
O1910      C1912   1.270       .  A
C1911      O1913   1.265       .  A
C1912      C2057   1.473       .  S
Fe1915     O1931   2.068       .  S
Fe1915     O1921   2.081       .  S
Fe1915     O1928   2.063       .  S
Fe1915     O1920   2.086       .  S
Fe1915     O1926   1.992       .  S
Fe1916     O1919   2.086       .  S
Fe1916     O1923   2.063       .  S
Fe1916     O1927   2.068       .  S
Fe1916     O1932   2.081       .  S
Fe1916     O1926   1.992       .  S
Fe1917     O1935   2.042       .  S
Fe1917     O1922   2.049       .  S
Fe1917     O1929   2.049       .  S
Fe1917     O1918   2.042       .  S
Fe1917     O1926   1.953       .  S
O1918      C1925   1.265       .  A
O1919      C1933   1.271       .  A
O1920      C1925   1.271       .  A
O1921      C1924   1.270       .  A
O1922      C1934   1.267       .  A
O1923      C1936   1.269       .  A
C1924      O1929   1.267       .  A
C1924      C1991   1.473       .  S
O1927      C1930   1.271       .  A
O1928      C1930   1.269       .  A
O1931      C1936   1.271       .  A
O1932      C1934   1.270       .  A
C1933      O1935   1.265       .  A
C1933      C1978   1.473       .  S
Fe1937     O1953   2.068       .  S
Fe1937     O1943   2.081       .  S
Fe1937     O1950   2.063       .  S
Fe1937     O1942   2.085       .  S
Fe1937     O1948   1.992       .  S
Fe1938     O1941   2.086       .  S
Fe1938     O1945   2.063       .  S
Fe1938     O1949   2.068       .  S
Fe1938     O1954   2.081       .  S
Fe1938     O1948   1.992       .  S
Fe1939     O1957   2.042       .  S
Fe1939     O1944   2.049       .  S
Fe1939     O1951   2.049       .  S
Fe1939     O1940   2.042       .  S
Fe1939     O1948   1.953       .  S
O1940      C1947   1.265       .  A
O1941      C1955   1.271       .  A
O1942      C1947   1.271       .  A
O1943      C1946   1.270       .  A
O1944      C1956   1.267       .  A
O1945      C1958   1.269       .  A
C1946      O1951   1.267       .  A
C1946      C1969   1.473       .  S
C1947      C2110   1.472       .  S
O1949      C1952   1.271       .  A
O1950      C1952   1.269       .  A
O1953      C1958   1.271       .  A
O1954      C1956   1.270       .  A
C1955      O1957   1.265       .  A
C1955      C2000   1.473       .  S
C1956      C2013   1.473       .  S
Fe1959     O1975   2.068       .  S
Fe1959     O1965   2.081       .  S
Fe1959     O1972   2.063       .  S
Fe1959     O1964   2.086       .  S
Fe1959     O1970   1.992       .  S
Fe1960     O1963   2.085       .  S
Fe1960     O1967   2.063       .  S
Fe1960     O1971   2.068       .  S
Fe1960     O1976   2.082       .  S
Fe1960     O1970   1.992       .  S
Fe1961     O1979   2.043       .  S
Fe1961     O1966   2.048       .  S
Fe1961     O1973   2.048       .  S
Fe1961     O1962   2.043       .  S
Fe1961     O1970   1.953       .  S
O1962      C1969   1.265       .  A
O1963      C1977   1.271       .  A
O1964      C1969   1.271       .  A
O1965      C1968   1.270       .  A
O1966      C1978   1.267       .  A
O1967      C1980   1.269       .  A
C1968      O1973   1.267       .  A
C1968      C2109   1.473       .  S
O1971      C1974   1.271       .  A
O1972      C1974   1.269       .  A
O1975      C1980   1.271       .  A
O1976      C1978   1.270       .  A
C1977      O1979   1.265       .  A
Fe1981     O1997   2.068       .  S
Fe1981     O1987   2.081       .  S
Fe1981     O1994   2.063       .  S
Fe1981     O1986   2.086       .  S
Fe1981     O1992   1.992       .  S
Fe1982     O1985   2.086       .  S
Fe1982     O1989   2.063       .  S
Fe1982     O1993   2.068       .  S
Fe1982     O1998   2.081       .  S
Fe1982     O1992   1.992       .  S
Fe1983     O2001   2.043       .  S
Fe1983     O1988   2.049       .  S
Fe1983     O1995   2.049       .  S
Fe1983     O1984   2.043       .  S
Fe1983     O1992   1.953       .  S
O1984      C1991   1.265       .  A
O1985      C1999   1.271       .  A
O1986      C1991   1.271       .  A
O1987      C1990   1.270       .  A
O1988      C2000   1.267       .  A
O1989      C2002   1.269       .  A
C1990      O1995   1.267       .  A
O1993      C1996   1.271       .  A
O1994      C1996   1.269       .  A
O1997      C2002   1.271       .  A
O1998      C2000   1.270       .  A
C1999      O2001   1.265       .  A
C1999      C2012   1.473       .  S
Fe2003     O2019   2.068       .  S
Fe2003     O2009   2.081       .  S
Fe2003     O2016   2.063       .  S
Fe2003     O2008   2.086       .  S
Fe2003     O2014   1.992       .  S
Fe2004     O2007   2.086       .  S
Fe2004     O2011   2.063       .  S
Fe2004     O2015   2.068       .  S
Fe2004     O2020   2.081       .  S
Fe2004     O2014   1.992       .  S
Fe2005     O2023   2.042       .  S
Fe2005     O2010   2.049       .  S
Fe2005     O2017   2.049       .  S
Fe2005     O2006   2.042       .  S
Fe2005     O2014   1.953       .  S
O2006      C2013   1.265       .  A
O2007      C2021   1.271       .  A
O2008      C2013   1.271       .  A
O2009      C2012   1.270       .  A
O2010      C2022   1.267       .  A
O2011      C2024   1.269       .  A
C2012      O2017   1.268       .  A
O2015      C2018   1.271       .  A
O2016      C2018   1.269       .  A
O2019      C2024   1.270       .  A
O2020      C2022   1.270       .  A
C2021      O2023   1.265       .  A
C2021      C2044   1.473       .  S
C2022      C2079   1.472       .  S
Fe2025     O2041   2.068       .  S
Fe2025     O2031   2.081       .  S
Fe2025     O2038   2.063       .  S
Fe2025     O2030   2.086       .  S
Fe2025     O2036   1.992       .  S
Fe2026     O2029   2.086       .  S
Fe2026     O2033   2.063       .  S
Fe2026     O2037   2.068       .  S
Fe2026     O2042   2.082       .  S
Fe2026     O2036   1.992       .  S
Fe2027     O2045   2.043       .  S
Fe2027     O2032   2.049       .  S
Fe2027     O2039   2.048       .  S
Fe2027     O2028   2.043       .  S
Fe2027     O2036   1.953       .  S
O2028      C2035   1.265       .  A
O2029      C2043   1.271       .  A
O2030      C2035   1.271       .  A
O2031      C2034   1.270       .  A
O2032      C2044   1.267       .  A
O2033      C2046   1.269       .  A
C2034      O2039   1.267       .  A
O2037      C2040   1.271       .  A
O2038      C2040   1.269       .  A
O2041      C2046   1.271       .  A
O2042      C2044   1.270       .  A
C2043      O2045   1.265       .  A
C2043      C2078   1.473       .  S
Fe2047     O2063   2.068       .  S
Fe2047     O2053   2.082       .  S
Fe2047     O2060   2.063       .  S
Fe2047     O2052   2.086       .  S
Fe2047     O2058   1.992       .  S
Fe2048     O2051   2.086       .  S
Fe2048     O2055   2.063       .  S
Fe2048     O2059   2.068       .  S
Fe2048     O2064   2.081       .  S
Fe2048     O2058   1.992       .  S
Fe2049     O2067   2.043       .  S
Fe2049     O2054   2.049       .  S
Fe2049     O2061   2.049       .  S
Fe2049     O2050   2.043       .  S
Fe2049     O2058   1.953       .  S
O2050      C2057   1.265       .  A
O2051      C2065   1.271       .  A
O2052      C2057   1.271       .  A
O2053      C2056   1.270       .  A
O2054      C2066   1.267       .  A
O2055      C2068   1.269       .  A
C2056      O2061   1.267       .  A
O2059      C2062   1.271       .  A
O2060      C2062   1.269       .  A
O2063      C2068   1.270       .  A
O2064      C2066   1.270       .  A
C2065      O2067   1.265       .  A
C2065      C2100   1.473       .  S
C2066      C2087   1.473       .  S
Fe2069     O2085   2.068       .  S
Fe2069     O2075   2.081       .  S
Fe2069     O2082   2.063       .  S
Fe2069     O2074   2.086       .  S
Fe2069     O2080   1.992       .  S
Fe2070     O2073   2.086       .  S
Fe2070     O2077   2.063       .  S
Fe2070     O2081   2.068       .  S
Fe2070     O2086   2.081       .  S
Fe2070     O2080   1.992       .  S
Fe2071     O2089   2.042       .  S
Fe2071     O2076   2.049       .  S
Fe2071     O2083   2.049       .  S
Fe2071     O2072   2.042       .  S
Fe2071     O2080   1.953       .  S
O2072      C2079   1.265       .  A
O2073      C2087   1.271       .  A
O2074      C2079   1.271       .  A
O2075      C2078   1.270       .  A
O2076      C2088   1.267       .  A
O2077      C2090   1.269       .  A
C2078      O2083   1.268       .  A
O2081      C2084   1.271       .  A
O2082      C2084   1.269       .  A
O2085      C2090   1.271       .  A
O2086      C2088   1.270       .  A
C2087      O2089   1.265       .  A
C2088      C2101   1.473       .  S
Fe2091     O2107   2.068       .  S
Fe2091     O2097   2.082       .  S
Fe2091     O2104   2.064       .  S
Fe2091     O2096   2.085       .  S
Fe2091     O2102   1.992       .  S
Fe2092     O2095   2.086       .  S
Fe2092     O2099   2.063       .  S
Fe2092     O2103   2.068       .  S
Fe2092     O2108   2.081       .  S
Fe2092     O2102   1.992       .  S
Fe2093     O2111   2.043       .  S
Fe2093     O2098   2.048       .  S
Fe2093     O2105   2.049       .  S
Fe2093     O2094   2.043       .  S
Fe2093     O2102   1.953       .  S
O2094      C2101   1.265       .  A
O2095      C2109   1.271       .  A
O2096      C2101   1.271       .  A
O2097      C2100   1.270       .  A
O2098      C2110   1.267       .  A
O2099      C2112   1.269       .  A
C2100      O2105   1.267       .  A
O2103      C2106   1.271       .  A
O2104      C2106   1.269       .  A
O2107      C2112   1.270       .  A
O2108      C2110   1.270       .  A
C2109      O2111   1.265       .  A
