geometry optimzed in LAMMPS
_audit_creation_date              2020-12-01 
_audit_creation_method            'lammps2cif' 
_symmetry_space_group_name_H-M    'P1' 
_symmetry_Int_Tables_number       1 
_symmetry_cell_setting            triclinic 
loop_ 
_symmetry_equiv_pos_as_xyz 
  x,y,z 
_cell_length_a                    37.38258957 
_cell_length_b                    37.488923264336066 
_cell_length_c                    37.146328888003005 
_cell_angle_alpha                 89.96757805142236 
_cell_angle_beta                  89.94217665008154 
_cell_angle_gamma                 89.9565810035577 
loop_ 
_atom_site_label 
_atom_site_type_symbol 
_atom_site_fract_x 
_atom_site_fract_y 
_atom_site_fract_z 
_atom_site_charge 
O1          O  0.90047678  0.53383944  0.85232783    -0.71700
O2          O  0.84785477  0.46248371  0.90097043    -0.71900
O3          O  0.89834498  0.46256506  0.85015028    -0.71700
O4          O  0.84967913  0.53347752  0.90353163    -0.71700
O5          O  0.80741601  0.53439448  0.86357425    -0.71700
O6          O  0.85874962  0.46677560  0.80757166    -0.71700
O7          O  0.80766701  0.46318440  0.85891808    -0.71700
O8          O  0.85862863  0.53802732  0.81218923    -0.71800
V9          V  0.87328632  0.49819382  0.87589376     1.35200
V10         V  0.83386709  0.50059362  0.83629825     1.35200
C11         C  0.88885106  0.54799878  0.82374444     0.77600
C12         C  0.81878936  0.45060002  0.88848053     0.77600
C13         C  0.88726233  0.45305947  0.81953751     0.77500
C14         C  0.81956015  0.54505635  0.89344782     0.77500
O15         O  0.70260442  0.71996224  0.07196340    -0.71700
O16         O  0.75431174  0.66483765  0.00390320    -0.71900
O17         O  0.70576265  0.71792739  0.99998340    -0.71700
O18         O  0.75111900  0.66687021  0.07571079    -0.71700
O19         O  0.70918995  0.62704059  0.07372000    -0.71700
O20         O  0.66228807  0.67962740  0.00025574    -0.71700
O21         O  0.71067659  0.62670560  0.00175498    -0.71700
O22         O  0.66076025  0.67979601  0.07250304    -0.71800
V23         V  0.72762822  0.69166517  0.03786183     1.35200
V24         V  0.68652612  0.65409143  0.03708398     1.35200
C25         C  0.67292745  0.70907646  0.08400258     0.77600
C26         C  0.74144844  0.63621552  0.99147625     0.77600
C27         C  0.67590886  0.70788328  0.98762171     0.77500
C28         C  0.73834725  0.63771503  0.08711056     0.77500
O29         O  0.50491257  0.77700291  0.85955596    -0.71700
O30         O  0.57477227  0.83028024  0.80873101    -0.71900
O31         O  0.57622401  0.77820880  0.85906379    -0.71700
O32         O  0.50324606  0.82909564  0.80932246    -0.71700
O33         O  0.50331613  0.86937624  0.85120481    -0.71700
O34         O  0.57541477  0.81806590  0.90145123    -0.71700
O35         O  0.57489981  0.86979552  0.85141051    -0.71700
O36         O  0.50367316  0.81773752  0.90117071    -0.71800
V37         V  0.53980379  0.80443642  0.83495179     1.35200
V38         V  0.53937127  0.84294912  0.87548560     1.35200
C39         C  0.49254608  0.78829612  0.88908284     0.77600
C40         C  0.58635454  0.85942164  0.82116994     0.77600
C41         C  0.58754561  0.78897181  0.88924679     0.77500
C42         C  0.49116202  0.85825004  0.82148114     0.77500
O43         O  0.66330538  0.03982274  0.71218327    -0.71700
O44         O  0.71383459  0.96765910  0.66224001    -0.71900
O45         O  0.66405117  0.96860177  0.71376473    -0.71700
O46         O  0.71341633  0.03886587  0.66045975    -0.71700
O47         O  0.75492557  0.04032477  0.70126467    -0.71700
O48         O  0.70567546  0.96948774  0.75451852    -0.71700
O49         O  0.75579527  0.96908557  0.70257737    -0.71700
O50         O  0.70447541  0.04059576  0.75338670    -0.71800
V51         V  0.68948374  0.00381607  0.68797352     1.35200
V52         V  0.72945425  0.00492657  0.72715581     1.35200
C53         C  0.67476758  0.05188938  0.74173476     0.77600
C54         C  0.74342856  0.95610463  0.67374040     0.77600
C55         C  0.67628712  0.95721801  0.74329042     0.77500
C56         C  0.74284893  0.05120826  0.67143908     0.77500
O57         O  0.99533879  0.72095002  0.70889422    -0.71700
O58         O  0.07081891  0.67137960  0.75632875    -0.71900
O59         O  0.06690116  0.72303104  0.70582501    -0.71700
O60         O  0.99915155  0.66937917  0.75963109    -0.71700
O61         O  0.99635890  0.63056624  0.71630514    -0.71700
O62         O  0.06833200  0.68114295  0.66546104    -0.71700
O63         O  0.06812642  0.62999331  0.71570466    -0.71700
O64         O  0.99652793  0.68159172  0.66602783    -0.71800
V65         V  0.03301416  0.69543762  0.73191578     1.35200
V66         V  0.03236193  0.65663036  0.69170840     1.35200
C67         C  0.98351819  0.70990481  0.67898113     0.77600
C68         C  0.08195630  0.64176613  0.74437412     0.77600
C69         C  0.07944801  0.71097761  0.67663972     0.77500
C70         C  0.98608811  0.64092055  0.74698570     0.77500
O71         O  0.86196875  0.77972764  0.57384890    -0.71700
O72         O  0.81055236  0.82847080  0.50040491    -0.71900
O73         O  0.86044770  0.77640781  0.50187561    -0.71700
O74         O  0.81208467  0.83157366  0.57240127    -0.71700
O75         O  0.85422601  0.87131698  0.57008959    -0.71700
O76         O  0.90196455  0.81683098  0.49874476    -0.71700
O77         O  0.85249587  0.86841399  0.49796287    -0.71700
O78         O  0.90385183  0.81969484  0.57099769    -0.71800
V79         V  0.83705983  0.80481007  0.53708677     1.35200
V80         V  0.87731954  0.84325745  0.53450751     1.35200
C81         C  0.89178294  0.79135485  0.58486890     0.77600
C82         C  0.82277430  0.85689558  0.48673035     0.77600
C83         C  0.88955797  0.78719944  0.48843484     0.77500
C84         C  0.82481217  0.86092455  0.58317486     0.77500
O85         O  0.49522721  0.17560084  0.90861028    -0.71700
O86         O  0.56739102  0.12622583  0.85715438    -0.71900
O87         O  0.56687415  0.17678416  0.90839218    -0.71700
O88         O  0.49557921  0.12533356  0.85731173    -0.71700
O89         O  0.49496896  0.16670357  0.81630882    -0.71700
O90         O  0.56649333  0.21750718  0.86690547    -0.71700
O91         O  0.56635986  0.16694346  0.81562964    -0.71700
O92         O  0.49505550  0.21707463  0.86781681    -0.71800
V93         V  0.53127093  0.15175612  0.88206474     1.35200
V94         V  0.53070801  0.19125482  0.84247660     1.35200
C95         C  0.48309992  0.20495813  0.89724080     0.77600
C96         C  0.57904707  0.13795506  0.82748660     0.77600
C97         C  0.57847099  0.20628412  0.89660467     0.77500
C98         C  0.48356368  0.13712046  0.82780205     0.77500
O99         O  0.71117653  0.36896308  0.99580141    -0.71700
O100        O  0.66293353  0.32027918  0.07115371    -0.71900
O101        O  0.71269227  0.37151651  0.06810603    -0.71700
O102        O  0.66126441  0.31771531  0.99900775    -0.71700
O103        O  0.70306566  0.27743344  0.99927916    -0.71700
O104        O  0.75415772  0.33103708  0.06923390    -0.71700
O105        O  0.70423894  0.27949863  0.07106006    -0.71700
O106        O  0.75327579  0.32900348  0.99712969    -0.71800
V107        V  0.68784283  0.34384611  0.03350462     1.35200
V108        V  0.72791370  0.30505804  0.03410235     1.35200
C109        C  0.74085079  0.35760240  0.98416774     0.77600
C110        C  0.67516345  0.29135934  0.08362113     0.77600
C111        C  0.74201504  0.36041214  0.08079498     0.77500
C112        C  0.67306290  0.28812153  0.98783354     0.77500
O113        O  0.86471947  0.53375299  0.25633655    -0.71700
O114        O  0.81345201  0.46114816  0.20662891    -0.71900
O115        O  0.86635414  0.46215875  0.25609838    -0.71700
O116        O  0.81171467  0.53236616  0.20730124    -0.71700
O117        O  0.85230126  0.53509775  0.16542205    -0.71700
O118        O  0.90482965  0.46211014  0.21240709    -0.71700
O119        O  0.85245764  0.46341744  0.16328138    -0.71700
O120        O  0.90515776  0.53299468  0.21422079    -0.71800
V121        V  0.83981677  0.49735768  0.23081392     1.35200
V122        V  0.87782864  0.49840825  0.18962462     1.35200
C123        C  0.89417594  0.54498933  0.24395122     0.77600
C124        C  0.82411581  0.45030283  0.17618657     0.77600
C125        C  0.89512302  0.45026495  0.24273015     0.77500
C126        C  0.82275378  0.54570011  0.17812736     0.77500
O127        O  0.99445492  0.66973629  0.31245088    -0.71700
O128        O  0.06526323  0.72381777  0.36166151    -0.71900
O129        O  0.06584533  0.67255392  0.31072445    -0.71700
O130        O  0.99369725  0.72101870  0.36308758    -0.71700
O131        O  0.99442042  0.67928683  0.40349466    -0.71700
O132        O  0.07047488  0.63351789  0.35373109    -0.71700
O133        O  0.06609637  0.68412945  0.40428926    -0.71700
O134        O  0.99946243  0.62801148  0.35282953    -0.71800
V135        V  0.02989027  0.69605211  0.33779919     1.35200
V136        V  0.03246612  0.65708499  0.37784784     1.35200
C137        C  0.98607379  0.63902666  0.32369293     0.77600
C138        C  0.07740393  0.71328569  0.39162812     0.77600
C139        C  0.08025091  0.64464139  0.32314721     0.77500
C140        C  0.98166138  0.70855773  0.39226634     0.77500
O141        O  0.15907604  0.82138788  0.56831741    -0.71700
O142        O  0.21095375  0.87226846  0.49759103    -0.71900
O143        O  0.16062130  0.82145158  0.49632485    -0.71700
O144        O  0.20958655  0.87197842  0.56953114    -0.71700
O145        O  0.25088241  0.83131176  0.57024958    -0.71700
O146        O  0.20157044  0.78045315  0.49715406    -0.71700
O147        O  0.25234339  0.83167442  0.49817263    -0.71700
O148        O  0.19998595  0.78040349  0.56948043    -0.71800
V149        V  0.18587645  0.84592176  0.53294000     1.35200
V150        V  0.22542445  0.80669215  0.53370682     1.35200
C151        C  0.17047813  0.79235613  0.58118397     0.77600
C152        C  0.24067019  0.86105000  0.48606695     0.77600
C153        C  0.17239037  0.79205597  0.48455105     0.77500
C154        C  0.23875204  0.86048721  0.58223758     0.77500
O155        O  0.36074704  0.03263530  0.75834400    -0.71700
O156        O  0.31051815  0.96126746  0.70670636    -0.71900
O157        O  0.36261545  0.96137855  0.75734962    -0.71700
O158        O  0.30923326  0.03273464  0.70790702    -0.71700
O159        O  0.35011931  0.03443029  0.66646672    -0.71700
O160        O  0.40255406  0.96232445  0.71488678    -0.71700
O161        O  0.35092191  0.96279104  0.66465350    -0.71700
O162        O  0.40139814  0.03370106  0.71670532    -0.71800
V163        V  0.33652604  0.99693291  0.73174692     1.35200
V164        V  0.37541275  0.99825825  0.69146284     1.35200
C165        C  0.38991932  0.04505793  0.74663654     0.77600
C166        C  0.32191867  0.95018864  0.67667779     0.77600
C167        C  0.39215251  0.95031323  0.74491678     0.77500
C168        C  0.32075863  0.04595686  0.67878492     0.77500
O169        O  0.75377916  0.95907173  0.36155617    -0.71700
O170        O  0.70724934  0.03438548  0.31110783    -0.71900
O171        O  0.75778259  0.03042552  0.36281598    -0.71700
O172        O  0.70329009  0.96307730  0.30961175    -0.71700
O173        O  0.66292192  0.96310835  0.35166329    -0.71700
O174        O  0.71538976  0.03340881  0.40272736    -0.71700
O175        O  0.66522466  0.03450362  0.35137967    -0.71700
O176        O  0.71315467  0.96180073  0.40323886    -0.71800
V177        V  0.72976857  0.99672644  0.33705839     1.35200
V178        V  0.69001178  0.99814457  0.37645725     1.35200
C179        C  0.74167192  0.94801191  0.39138813     0.77600
C180        C  0.67782090  0.04685831  0.32234242     0.77600
C181        C  0.74563627  0.04373616  0.39161842     0.77500
C182        C  0.67360180  0.95188089  0.32140672     0.77500
O183        O  0.49294690  0.83118967  0.25143588    -0.71700
O184        O  0.56631501  0.78163195  0.20182112    -0.71900
O185        O  0.56439551  0.83227165  0.25293247    -0.71700
O186        O  0.49478625  0.78038700  0.20036227    -0.71700
O187        O  0.49428079  0.82166176  0.15934457    -0.71700
O188        O  0.56500528  0.87291292  0.21133872    -0.71700
O189        O  0.56610490  0.82233072  0.16027374    -0.71700
O190        O  0.49316135  0.87234196  0.21025995    -0.71800
V191        V  0.52957090  0.80716320  0.22582005     1.35200
V192        V  0.52963965  0.84651487  0.18608683     1.35200
C193        C  0.48091433  0.86046124  0.23961263     0.77600
C194        C  0.57867301  0.79344313  0.17245656     0.77600
C195        C  0.57645285  0.86157674  0.24129321     0.77500
C196        C  0.48271796  0.79208346  0.17084354     0.77500
O197        O  0.20658410  0.53301437  0.80627344    -0.71700
O198        O  0.25844335  0.46254276  0.85859936    -0.71900
O199        O  0.20662175  0.46159808  0.80781214    -0.71700
O200        O  0.25845832  0.53389291  0.85689943    -0.71700
O201        O  0.21875584  0.53338673  0.89962941    -0.71700
O202        O  0.16533545  0.46427097  0.84873390    -0.71700
O203        O  0.21663856  0.46202844  0.89918367    -0.71700
O204        O  0.16751968  0.53568003  0.84954685    -0.71800
V205        V  0.23178171  0.49778054  0.83316557     1.35200
V206        V  0.19286905  0.49876812  0.87343337     1.35200
C207        C  0.17818153  0.54631918  0.81911086     0.77600
C208        C  0.24644340  0.45046914  0.88805289     0.77600
C209        C  0.17658858  0.45120453  0.81945304     0.77500
C210        C  0.24759127  0.54559001  0.88690639     0.77500
O211        O  0.40644266  0.67673681  0.06627379    -0.71700
O212        O  0.35967877  0.62619595  0.99161148    -0.71900
O213        O  0.41082850  0.67625044  0.99440439    -0.71700
O214        O  0.35530430  0.62682652  0.06338376    -0.71700
O215        O  0.31477449  0.66825475  0.06090806    -0.71700
O216        O  0.37025264  0.71747151  0.99118819    -0.71700
O217        O  0.31881996  0.66730674  0.98922719    -0.71700
O218        O  0.36626082  0.71841860  0.06315758    -0.71800
V219        V  0.38227634  0.65232922  0.02885473     1.35200
V220        V  0.34332076  0.69210549  0.02616864     1.35200
C221        C  0.39458954  0.70636371  0.07725464     0.77600
C222        C  0.33089732  0.63777494  0.97815512     0.77600
C223        C  0.40019184  0.70535349  0.98102139     0.77500
C224        C  0.32549004  0.63891234  0.07376515     0.77500
O225        O  0.15802259  0.53994907  0.20758823    -0.71700
O226        O  0.20939754  0.46792013  0.15790105    -0.71900
O227        O  0.15956330  0.46866047  0.20985568    -0.71700
O228        O  0.20803865  0.53944700  0.15546876    -0.71700
O229        O  0.24982421  0.54096991  0.19599563    -0.71700
O230        O  0.20104635  0.47134665  0.25068839    -0.71700
O231        O  0.25099784  0.46988105  0.19859605    -0.71700
O232        O  0.19979884  0.54231408  0.24798149    -0.71800
V233        V  0.18455712  0.50406911  0.18345864     1.35200
V234        V  0.22461597  0.50610229  0.22248770     1.35200
C235        C  0.16981869  0.55308564  0.23656655     0.77600
C236        C  0.23897947  0.45659378  0.16976143     0.77600
C237        C  0.17171066  0.45860102  0.23993829     0.77500
C238        C  0.23760988  0.55177973  0.16623892     0.77500
O239        O  0.31105686  0.32896833  0.99912727    -0.71700
O240        O  0.36157402  0.27901546  0.07258742    -0.71900
O241        O  0.31074949  0.33062074  0.07125659    -0.71700
O242        O  0.36161817  0.27761003  0.00065422    -0.71700
O243        O  0.40264541  0.31856724  0.99958609    -0.71700
O244        O  0.35245752  0.37084737  0.07054140    -0.71700
O245        O  0.40282892  0.31966696  0.07145623    -0.71700
O246        O  0.35243810  0.36950069  0.99843899    -0.71800
V247        V  0.33699441  0.30483409  0.03593109     1.35200
V248        V  0.37674464  0.34383856  0.03507554     1.35200
C249        C  0.32300364  0.35795087  0.98642848     0.77600
C250        C  0.39129595  0.29051585  0.08404023     0.77600
C251        C  0.32279764  0.36005224  0.08265559     0.77500
C252        C  0.39094896  0.28906785  0.98824882     0.77500
O253        O  0.56993197  0.18026354  0.16162325    -0.71700
O254        O  0.50217477  0.12573987  0.21330561    -0.71900
O255        O  0.49809476  0.17687368  0.16258314    -0.71700
O256        O  0.57360142  0.12964717  0.21223676    -0.71700
O257        O  0.56901399  0.16812027  0.25567637    -0.71700
O258        O  0.49951651  0.21939131  0.20220647    -0.71700
O259        O  0.49738286  0.16818085  0.25284948    -0.71700
O260        O  0.57115245  0.21918275  0.20486842    -0.71800
V261        V  0.53585577  0.15394003  0.18817100     1.35200
V262        V  0.53428731  0.19297663  0.22811047     1.35200
C263        C  0.58285301  0.20848020  0.17478900     0.77600
C264        C  0.48816978  0.13764589  0.24181497     0.77600
C265        C  0.48651583  0.20671030  0.17354022     0.77500
C266        C  0.58334058  0.14025489  0.24303044     0.77500
O267        O  0.99334205  0.32251887  0.66241982    -0.71700
O268        O  0.06774273  0.37134662  0.71134442    -0.71900
O269        O  0.06506328  0.32126481  0.66023790    -0.71700
O270        O  0.99599708  0.37262222  0.71339887    -0.71700
O271        O  0.99402438  0.33029263  0.75317008    -0.71700
O272        O  0.06767331  0.28147674  0.70263951    -0.71700
O273        O  0.06564654  0.33193531  0.75422845    -0.71700
O274        O  0.99600294  0.27984130  0.70187775    -0.71800
V275        V  0.03054381  0.34613797  0.68765855     1.35200
V276        V  0.03086969  0.30663112  0.72721455     1.35200
C277        C  0.98238571  0.29256729  0.67349065     0.77600
C278        C  0.07864260  0.36043714  0.74160215     0.77600
C279        C  0.07859035  0.29291341  0.67250938     0.77500
C280        C  0.98276418  0.36014209  0.74206605     0.77500
O281        O  0.90578730  0.18210614  0.56568042    -0.71700
O282        O  0.85746508  0.12872508  0.49451069    -0.71900
O283        O  0.90636865  0.18105799  0.49366884    -0.71700
O284        O  0.85690766  0.13011987  0.56632120    -0.71700
O285        O  0.81357083  0.16860146  0.56386605    -0.71700
O286        O  0.86511975  0.22195985  0.49454842    -0.71700
O287        O  0.81589848  0.16901061  0.49193320    -0.71700
O288        O  0.86275608  0.22095244  0.56649710    -0.71800
V289        V  0.88080923  0.15632584  0.52998257     1.35200
V290        V  0.84010490  0.19440218  0.52913635     1.35200
C291        C  0.89253066  0.21027974  0.57868918     0.77600
C292        C  0.82827654  0.13935375  0.48123871     0.77600
C293        C  0.89467884  0.21071356  0.48259447     0.77500
C294        C  0.82652390  0.14034261  0.57706679     0.77500
O295        O  0.16737431  0.18164726  0.49936280    -0.71700
O296        O  0.21544250  0.13254483  0.57439374    -0.71900
O297        O  0.16445834  0.18255741  0.57109491    -0.71700
O298        O  0.21848102  0.13131599  0.50249786    -0.71700
O299        O  0.25947397  0.17230035  0.50320930    -0.71700
O300        O  0.20497613  0.22402441  0.57225106    -0.71700
O301        O  0.25645294  0.17353416  0.57511041    -0.71700
O302        O  0.20786257  0.22308182  0.50048438    -0.71800
V303        V  0.19228722  0.15783229  0.53681425     1.35200
V304        V  0.23144726  0.19746132  0.53772087     1.35200
C305        C  0.17880540  0.21124214  0.48780200     0.77600
C306        C  0.24450718  0.14428026  0.58705559     0.77600
C307        C  0.17525932  0.21206588  0.58321566     0.77500
C308        C  0.24826927  0.14271604  0.49134790     0.77500
O309        O  0.35623177  0.96592712  0.40910651    -0.71700
O310        O  0.41002961  0.03374435  0.35599112    -0.71900
O311        O  0.36091207  0.03736101  0.40909164    -0.71700
O312        O  0.40516484  0.96292713  0.35659388    -0.71700
O313        O  0.36434590  0.96681501  0.31531663    -0.71700
O314        O  0.31765166  0.03843139  0.37019126    -0.71700
O315        O  0.36670078  0.03822218  0.31721123    -0.71700
O316        O  0.31490769  0.96723871  0.36810521    -0.71800
V317        V  0.38223797  0.00011964  0.38194594     1.35200
V318        V  0.34168185  0.00266050  0.34347857     1.35200
C319        C  0.32653353  0.95470580  0.39746003     0.77600
C320        C  0.39768613  0.04702853  0.32731207     0.77600
C321        C  0.33119579  0.04999412  0.39911874     0.77500
C322        C  0.39283367  0.95253935  0.32677731     0.77500
O323        O  0.00268688  0.28407902  0.36732966    -0.71700
O324        O  0.07471614  0.33386558  0.31599762    -0.71900
O325        O  0.07415505  0.28409515  0.36831560    -0.71700
O326        O  0.00354676  0.33355864  0.31501770    -0.71700
O327        O  0.00060073  0.37382291  0.35698707    -0.71700
O328        O  0.07563446  0.32706139  0.40741143    -0.71700
O329        O  0.07213791  0.37677133  0.35509870    -0.71700
O330        O  0.00400983  0.32447330  0.40904429    -0.71800
V331        V  0.03882397  0.30966807  0.34248956     1.35200
V332        V  0.03817560  0.34975040  0.38138648     1.35200
C333        C  0.99124746  0.29558928  0.39720211     0.77600
C334        C  0.08459225  0.36453000  0.32595805     0.77600
C335        C  0.08690996  0.29696045  0.39700381     0.77500
C336        C  0.98990275  0.36198795  0.32700386     0.77500
C337        C  0.11286518  0.27599462  0.41850729     0.00000
C338        C  0.11130213  0.23865234  0.41622802    -0.11900
C339        C  0.13285045  0.21698764  0.43784514     0.02200
C340        C  0.15761473  0.23263119  0.46182725    -0.00100
C341        C  0.16017960  0.27003874  0.46313775    -0.11800
C342        C  0.13778301  0.29175169  0.44223625     0.02100
H343        H  0.09208547  0.22613622  0.39830750     0.15100
H344        H  0.17882633  0.28249787  0.48168235     0.15100
C345        C  0.14094509  0.32996132  0.44589540     0.36700
C346        C  0.12829831  0.17887896  0.43498751     0.36600
N347        N  0.14348387  0.36056626  0.44906261    -0.43600
N348        N  0.12389957  0.14843867  0.43251195    -0.43600
C349        C  0.31141820  0.07615157  0.42143359     0.00000
C350        C  0.27407740  0.07718309  0.41799379    -0.11900
C351        C  0.25321062  0.09897170  0.44002506     0.02200
C352        C  0.26965939  0.12123444  0.46578799    -0.00100
C353        C  0.30714552  0.12123259  0.46856067    -0.11800
C354        C  0.32808622  0.09860117  0.44703478     0.02100
H355        H  0.26084997  0.05996625  0.39871535     0.15100
H356        H  0.32003778  0.13802194  0.48843060     0.15100
C357        C  0.36640530  0.09902967  0.45194308     0.36700
C358        C  0.21491048  0.09760499  0.43547093     0.36600
N359        N  0.39709075  0.09935757  0.45606079    -0.43600
N360        N  0.18424804  0.09596962  0.43172402    -0.43600
C361        C  0.96418007  0.27518588  0.41792987     0.00000
C362        C  0.95727862  0.23962017  0.40800011    -0.11900
C363        C  0.93368537  0.21841303  0.42790146     0.02200
C364        C  0.91627697  0.23280590  0.45819486    -0.00100
C365        C  0.92175011  0.26863067  0.46729876    -0.11800
C366        C  0.94558062  0.28984962  0.44772501     0.02100
H367        H  0.97081989  0.22801457  0.38500416     0.15100
H368        H  0.90832798  0.27972881  0.49065406     0.15100
C369        C  0.95033337  0.32632667  0.45927418     0.36700
C370        C  0.92706344  0.18229650  0.41619071     0.36600
N371        N  0.95404928  0.35548940  0.46876682    -0.43600
N372        N  0.92155592  0.15346062  0.40659375    -0.43600
C373        C  0.95572771  0.27194558  0.65277628     0.00000
C374        C  0.95913257  0.23474890  0.65193552    -0.11900
C375        C  0.93804247  0.21407089  0.62901333     0.02200
C376        C  0.91221935  0.23058234  0.60664533    -0.00100
C377        C  0.90696913  0.26760936  0.60951009    -0.11800
C378        C  0.92862226  0.28837942  0.63209553     0.02100
H379        H  0.97962531  0.22180491  0.66805669     0.15100
H380        H  0.88690344  0.28063010  0.59295077     0.15100
C381        C  0.92246007  0.32638620  0.63362585     0.36700
C382        C  0.94426504  0.17605851  0.62864318     0.36600
N383        N  0.91758369  0.35684908  0.63496877    -0.43600
N384        N  0.94970099  0.14567493  0.62827474    -0.43600
C385        C  0.10571513  0.27307760  0.65157994     0.00000
C386        C  0.10735622  0.23586951  0.65527829    -0.11900
C387        C  0.13029292  0.21550684  0.63379407     0.02200
C388        C  0.15288250  0.23253281  0.60858510    -0.00100
C389        C  0.15240730  0.26984141  0.60595096    -0.11800
C390        C  0.12884887  0.29017367  0.62682801     0.02100
H391        H  0.08973697  0.22244698  0.67419975     0.15100
H392        H  0.16961133  0.28312251  0.58654514     0.15100
C393        C  0.12908456  0.32844251  0.62221591     0.36700
C394        C  0.13004976  0.17721391  0.63818063     0.36600
N395        N  0.12917466  0.35908797  0.61841276    -0.43600
N396        N  0.12981268  0.14651564  0.64149006    -0.43600
C397        C  0.46331774  0.11521663  0.26263395     0.00000
C398        C  0.47161657  0.07891491  0.26623167    -0.11900
C399        C  0.45052714  0.05656040  0.28746600     0.02200
C400        C  0.42002195  0.07031555  0.30489396    -0.00100
C401        C  0.41084831  0.10633473  0.30044118    -0.11800
C402        C  0.43255847  0.12901140  0.27977685     0.02100
H403        H  0.49519911  0.06816205  0.25316992     0.15100
H404        H  0.38714792  0.11678063  0.31350453     0.15100
C405        C  0.42231417  0.16593999  0.27577064     0.36700
C406        C  0.46063777  0.01949511  0.29064992     0.36600
N407        N  0.41420807  0.19555560  0.27242362    -0.43600
N408        N  0.46908527  0.98989497  0.29305954    -0.43600
C409        C  0.45959938  0.22735476  0.15281194     0.00000
C410        C  0.46150365  0.26472983  0.15370713    -0.11900
C411        C  0.43885765  0.28581270  0.13256173     0.02200
C412        C  0.41305227  0.26957902  0.11008915    -0.00100
C413        C  0.40984438  0.23218380  0.11064645    -0.11800
C414        C  0.43290578  0.21104719  0.13154190     0.02100
H415        H  0.48163510  0.27764481  0.17022059     0.15100
H416        H  0.39001722  0.21927249  0.09378499     0.15100
C417        C  0.42818381  0.17282681  0.13110056     0.36700
C418        C  0.44296950  0.32404185  0.13455879     0.36600
N419        N  0.42431178  0.14220042  0.13084293    -0.43600
N420        N  0.44658283  0.35464409  0.13622254    -0.43600
C421        C  0.25976062  0.42939789  0.14982083     0.00000
C422        C  0.29722486  0.43051124  0.15172412    -0.11900
C423        C  0.31832193  0.40740778  0.13112809     0.02200
C424        C  0.30190848  0.38225433  0.10811034    -0.00100
C425        C  0.26440433  0.37991299  0.10762219    -0.11800
C426        C  0.24329695  0.40321668  0.12808333     0.02100
H427        H  0.31018162  0.45022720  0.16864054     0.15100
H428        H  0.25142953  0.36053112  0.09033939     0.15100
C429        C  0.20490081  0.39921857  0.12669044     0.36700
C430        C  0.35669682  0.41010957  0.13447103     0.36600
N431        N  0.17413809  0.39592382  0.12567514    -0.43600
N432        N  0.38742024  0.41248828  0.13731374    -0.43600
C433        C  0.10906711  0.38634829  0.30367967     0.00000
C434        C  0.12834293  0.41391474  0.32034457    -0.11900
C435        C  0.14943265  0.43731186  0.30015477     0.02200
C436        C  0.15156226  0.43327979  0.26243520    -0.00100
C437        C  0.13263877  0.40564839  0.24570796    -0.11800
C438        C  0.11154717  0.38218215  0.26586921     0.02100
H439        H  0.12639002  0.41768998  0.34921895     0.15100
H440        H  0.13400683  0.40264785  0.21669931     0.15100
C441        C  0.09135306  0.35548129  0.24662355     0.36700
C442        C  0.16665245  0.46659063  0.31855996     0.36600
N443        N  0.07514704  0.33419458  0.23107430    -0.43600
N444        N  0.18032936  0.49017806  0.33316887    -0.43600
C445        C  0.25892410  0.57651821  0.14397822     0.00000
C446        C  0.29627576  0.57474382  0.14701630    -0.11900
C447        C  0.31841875  0.59515673  0.12494046     0.02200
C448        C  0.30321136  0.61860392  0.09942169    -0.00100
C449        C  0.26577873  0.62145048  0.09723996    -0.11800
C450        C  0.24355792  0.60043891  0.11900085     0.02100
H451        H  0.30841382  0.55641022  0.16608907     0.15100
H452        H  0.25378942  0.63941383  0.07773678     0.15100
C453        C  0.20529401  0.60432567  0.11539183     0.36700
C454        C  0.35659564  0.59129678  0.12931473     0.36600
N455        N  0.17464519  0.60755179  0.11241435    -0.43600
N456        N  0.38712012  0.58774835  0.13297821    -0.43600
C457        C  0.15414121  0.42522865  0.79938331     0.00000
C458        C  0.12379950  0.41132973  0.81682353    -0.11900
C459        C  0.09948416  0.38958434  0.79868150     0.02200
C460        C  0.10513972  0.38117287  0.76217521    -0.00100
C461        C  0.13573957  0.39418339  0.74470318    -0.11800
C462        C  0.16044473  0.41572580  0.76297841     0.02100
H463        H  0.11841506  0.41814377  0.84467376     0.15100
H464        H  0.14024534  0.38760971  0.71662811     0.15100
C465        C  0.19129929  0.42817885  0.74324741     0.36700
C466        C  0.06769210  0.37840619  0.81762114     0.36600
N467        N  0.21599695  0.43802379  0.72727671    -0.43600
N468        N  0.04225320  0.36985437  0.83310766    -0.43600
C469        C  0.26865883  0.57190154  0.90740866     0.00000
C470        C  0.30613489  0.56987054  0.90629606    -0.11900
C471        C  0.32717325  0.59163934  0.92837597     0.02200
C472        C  0.31059935  0.61646199  0.95168021    -0.00100
C473        C  0.27317524  0.61965272  0.95138511    -0.11800
C474        C  0.25216684  0.59756510  0.92974427     0.02100
H475        H  0.31900579  0.55034531  0.88909102     0.15100
H476        H  0.26013031  0.63867660  0.96902624     0.15100
C477        C  0.21379170  0.60208337  0.93081524     0.36700
C478        C  0.36558298  0.58794084  0.92640185     0.36600
N479        N  0.18305962  0.60575155  0.93167355    -0.43600
N480        N  0.39635190  0.58489669  0.92476040    -0.43600
C481        C  0.26679308  0.42419562  0.90987659     0.00000
C482        C  0.24773742  0.40020207  0.93170680    -0.11900
C483        C  0.26538456  0.37731104  0.95568141     0.02200
C484        C  0.30308379  0.37856395  0.95869553    -0.00100
C485        C  0.32220694  0.40181216  0.93604173    -0.11800
C486        C  0.30457077  0.42429989  0.91164706     0.02100
H487        H  0.21870685  0.39972990  0.93047602     0.15100
H488        H  0.35119421  0.40290458  0.93781515     0.15100
C489        C  0.32591455  0.44856126  0.89039342     0.36700
C490        C  0.24384518  0.35419870  0.97799303     0.36600
N491        N  0.34314681  0.46794920  0.87343071    -0.43600
N492        N  0.22648907  0.33566678  0.99578018    -0.43600
C493        C  0.41430481  0.72739593  0.10452197     0.00000
C494        C  0.41047121  0.76464440  0.10428008    -0.11900
C495        C  0.43175832  0.78630863  0.12614888     0.02200
C496        C  0.45704014  0.77068753  0.14959937    -0.00100
C497        C  0.45930245  0.73335510  0.15148465    -0.11800
C498        C  0.43856929  0.71168988  0.12905097     0.02100
H499        H  0.39179054  0.77710284  0.08579065     0.15100
H500        H  0.47844666  0.72098288  0.16955211     0.15100
C501        C  0.44321828  0.67355489  0.13170671     0.36700
C502        C  0.42707597  0.82439456  0.12349468     0.36600
N503        N  0.44736547  0.64304889  0.13395839    -0.43600
N504        N  0.42296520  0.85483984  0.12063709    -0.43600
C505        C  0.41232301  0.92560683  0.30516455     0.00000
C506        C  0.40761683  0.92530938  0.26764935    -0.11900
C507        C  0.42915460  0.90398963  0.24552954     0.02200
C508        C  0.45501079  0.88124226  0.26109028    -0.00100
C509        C  0.45829629  0.88006991  0.29864060    -0.11800
C510        C  0.43788726  0.90235897  0.32064858     0.02100
H511        H  0.38833608  0.94318179  0.25532908     0.15100
H512        H  0.47834370  0.86296793  0.31086729     0.15100
C513        C  0.44500693  0.90151663  0.35882859     0.36700
C514        C  0.42454285  0.90680419  0.20709692     0.36600
N515        N  0.45133430  0.90102104  0.38930719    -0.43600
N516        N  0.42062138  0.90988310  0.17637259    -0.43600
C517        C  0.76670997  0.07010253  0.41226829     0.00000
C518        C  0.80380504  0.06538507  0.41507368    -0.11900
C519        C  0.82460903  0.08807099  0.43645358     0.02200
C520        C  0.80827912  0.11668306  0.45528614    -0.00100
C521        C  0.77131818  0.12224415  0.45107527    -0.11800
C522        C  0.75052179  0.09924387  0.42999780     0.02100
H523        H  0.81649553  0.04317855  0.40131178     0.15100
H524        H  0.75832876  0.14411285  0.46507347     0.15100
C525        C  0.71278161  0.10663951  0.42633080     0.36700
C526        C  0.86255402  0.08103234  0.43848954     0.36600
N527        N  0.68256570  0.11262760  0.42323172    -0.43600
N528        N  0.89292107  0.07521705  0.44013883    -0.43600
C529        C  0.65122004  0.92691836  0.30023847     0.00000
C530        C  0.62942622  0.90249290  0.31867229    -0.11900
C531        C  0.60562424  0.88026684  0.30013877     0.02200
C532        C  0.60300232  0.88249077  0.26218694    -0.00100
C533        C  0.62530066  0.90648888  0.24373824    -0.11800
C534        C  0.64930119  0.92848063  0.26227013     0.02100
H535        H  0.63064245  0.90108323  0.34780602     0.15100
H536        H  0.62366769  0.90846066  0.21466281     0.15100
C537        C  0.67001602  0.95373477  0.24162393     0.36700
C538        C  0.58309670  0.85683391  0.32109608     0.36600
N539        N  0.68645375  0.97389849  0.22481185    -0.43600
N540        N  0.56506994  0.83812697  0.33799811    -0.43600
C541        C  0.65742829  0.07436358  0.30202228     0.00000
C542        C  0.63008861  0.09286581  0.32014804    -0.11900
C543        C  0.60675652  0.11563065  0.30176210     0.02200
C544        C  0.61000906  0.11984267  0.26412749    -0.00100
C545        C  0.63827246  0.10274598  0.24613640    -0.11800
C546        C  0.66234604  0.08072124  0.26475999     0.02100
H547        H  0.62630805  0.08894272  0.34882955     0.15100
H548        H  0.64144963  0.10647540  0.21735308     0.15100
C549        C  0.69124028  0.06468671  0.24465547     0.36700
C550        C  0.57849353  0.13263288  0.32202292     0.36600
N551        N  0.71461477  0.05228060  0.22848078    -0.43600
N552        N  0.55592075  0.14628683  0.33832352    -0.43600
C553        C  0.30078381  0.07406355  0.65898709     0.00000
C554        C  0.31984221  0.09602172  0.63502647    -0.11900
C555        C  0.30226443  0.12050322  0.61278460     0.02200
C556        C  0.26460498  0.12315452  0.61392996    -0.00100
C557        C  0.24559718  0.10248025  0.63899615    -0.11800
C558        C  0.26325701  0.07834127  0.66170257     0.02100
H559        H  0.34873224  0.09347523  0.63297554     0.15100
H560        H  0.21662027  0.10460177  0.64026436     0.15100
C561        C  0.24187490  0.05720576  0.68606476     0.36700
C562        C  0.32340904  0.14065088  0.58733739     0.36600
N563        N  0.22461759  0.04038749  0.70560232    -0.43600
N564        N  0.34036134  0.15674340  0.56692562    -0.43600
C565        C  0.25901452  0.88130032  0.60936241     0.00000
C566        C  0.29615894  0.87600348  0.61211909    -0.11900
C567        C  0.31711526  0.89738698  0.63466157     0.02200
C568        C  0.30085899  0.92448785  0.65532256    -0.00100
C569        C  0.26358251  0.92855140  0.65412809    -0.11800
C570        C  0.24261771  0.90746757  0.63133994     0.02100
H571        H  0.30912888  0.85574028  0.59582487     0.15100
H572        H  0.25085730  0.94916730  0.67018634     0.15100
C573        C  0.20443372  0.91338076  0.63126837     0.36700
C574        C  0.35508642  0.89052712  0.63659848     0.36600
N575        N  0.17385526  0.91823238  0.63126880    -0.43600
N576        N  0.38548021  0.88487172  0.63825595    -0.43600
C577        C  0.26198580  0.88273300  0.46045419     0.00000
C578        C  0.29941997  0.87968049  0.46106378    -0.11900
C579        C  0.32103118  0.90242548  0.44052086     0.02200
C580        C  0.30516705  0.92847447  0.41811932    -0.00100
C581        C  0.26772587  0.93040331  0.41619572    -0.11800
C582        C  0.24611166  0.90819682  0.43727940     0.02100
H583        H  0.31199695  0.86026149  0.47868856     0.15100
H584        H  0.25520024  0.95020961  0.39897295     0.15100
C585        C  0.20779186  0.91236767  0.43452325     0.36700
C586        C  0.35933129  0.89824457  0.44298165     0.36600
N587        N  0.17711378  0.91592234  0.43231714    -0.43600
N588        N  0.39000252  0.89477635  0.44524241    -0.43600
C589        C  0.10402509  0.73427190  0.41192982     0.00000
C590        C  0.13073268  0.71602328  0.43106070    -0.11900
C591        C  0.15467878  0.73428291  0.45337926     0.02200
C592        C  0.15152562  0.77169483  0.45751441    -0.00100
C593        C  0.12562557  0.78998860  0.43720272    -0.11800
C594        C  0.10213113  0.77175290  0.41444722     0.02100
H595        H  0.13260881  0.68716741  0.42890491     0.15100
H596        H  0.12307338  0.81875229  0.43974765     0.15100
C597        C  0.07497902  0.79202158  0.39587879     0.36700
C598        C  0.18105655  0.71357805  0.47263450     0.36600
N599        N  0.05329746  0.80848495  0.38111054    -0.43600
N600        N  0.20222214  0.69682627  0.48785374    -0.43600
C601        C  0.10590140  0.62416716  0.30115074     0.00000
C602        C  0.09924154  0.62120652  0.26414074    -0.11900
C603        C  0.11982400  0.59872971  0.24239727     0.02200
C604        C  0.14855542  0.57925834  0.25757160    -0.00100
C605        C  0.15612968  0.58353056  0.29442841    -0.11800
C606        C  0.13491629  0.60540514  0.31630141     0.02100
H607        H  0.07675689  0.63537427  0.25236268     0.15100
H608        H  0.17808878  0.56887796  0.30656031     0.15100
C609        C  0.14369683  0.60835980  0.35403923     0.36700
C610        C  0.11026033  0.59600960  0.20484179     0.36600
N611        N  0.15080073  0.61072561  0.38426296    -0.43600
N612        N  0.10225153  0.59383366  0.17483573    -0.43600
C613        C  0.96261521  0.61556788  0.30263537     0.00000
C614        C  0.92747569  0.62626039  0.29487076    -0.11900
C615        C  0.90428418  0.60345790  0.27613139     0.02200
C616        C  0.91669403  0.56993835  0.26431133    -0.00100
C617        C  0.95210486  0.55979048  0.27125002    -0.11800
C618        C  0.97498833  0.58210342  0.29053636     0.02100
H619        H  0.91806021  0.65207184  0.30390299     0.15100
H620        H  0.96177288  0.53416518  0.26188672     0.15100
C621        C  0.01133005  0.57040083  0.29666821     0.36700
C622        C  0.86841196  0.61537715  0.26829033     0.36600
N623        N  0.04037628  0.56078379  0.30138276    -0.43600
N624        N  0.83967183  0.62492584  0.26187471    -0.43600
C625        C  0.91760785  0.42443575  0.26296569     0.00000
C626        C  0.91040505  0.41880025  0.29975486    -0.11900
C627        C  0.93308338  0.39786384  0.32105082     0.02200
C628        C  0.96339959  0.38171944  0.30547873    -0.00100
C629        C  0.96965703  0.38565543  0.26850520    -0.11800
C630        C  0.94737429  0.40692347  0.24722484     0.02100
H631        H  0.88752199  0.43157773  0.31229441     0.15100
H632        H  0.99290806  0.37306738  0.25639270     0.15100
C633        C  0.95636182  0.41054404  0.20957524     0.36700
C634        C  0.92435490  0.39280278  0.35859559     0.36600
N635        N  0.96379744  0.41348681  0.17946725    -0.43600
N636        N  0.91732326  0.38858185  0.38864554    -0.43600
C637        C  0.80317499  0.42426473  0.15513334     0.00000
C638        C  0.76600579  0.42850216  0.15324245    -0.11900
C639        C  0.74543135  0.40780910  0.12972220     0.02200
C640        C  0.76206866  0.38156377  0.10792859    -0.00100
C641        C  0.79911224  0.37605875  0.11145028    -0.11800
C642        C  0.81971426  0.39727535  0.13450837     0.02100
H643        H  0.75312139  0.44922322  0.16908526     0.15100
H644        H  0.81230616  0.35578290  0.09533334     0.15100
C645        C  0.85769499  0.39056960  0.13681569     0.36700
C646        C  0.70746336  0.41468125  0.12840187     0.36600
N647        N  0.88810957  0.38511921  0.13873002    -0.43600
N648        N  0.67711824  0.42069647  0.12738323    -0.43600
C649        C  0.65501245  0.27070815  0.11068356     0.00000
C650        C  0.65610289  0.23335938  0.10871558    -0.11900
C651        C  0.63390882  0.21242952  0.13038671     0.02200
C652        C  0.61008995  0.22898225  0.15478974    -0.00100
C653        C  0.61097242  0.26619057  0.15867370    -0.11800
C654        C  0.63309440  0.28712118  0.13684536     0.02100
H655        H  0.67343551  0.22042253  0.08920754     0.15100
H656        H  0.59335978  0.27913083  0.17793088     0.15100
C657        C  0.63300867  0.32522090  0.14224279     0.36700
C658        C  0.63638996  0.17410179  0.12714127     0.36600
N659        N  0.63278754  0.35570827  0.14700604    -0.43600
N660        N  0.63847462  0.14340167  0.12459540    -0.43600
C661        C  0.45781840  0.11619489  0.80651115     0.00000
C662        C  0.42906312  0.09951824  0.82391314    -0.11900
C663        C  0.40531950  0.07771816  0.80478122     0.02200
C664        C  0.41099936  0.07140832  0.76757109    -0.00100
C665        C  0.43927609  0.08911082  0.75016209    -0.11800
C666        C  0.46243293  0.11144137  0.76914443     0.02100
H667        H  0.42519008  0.10351501  0.85258539     0.15100
H668        H  0.44388545  0.08495442  0.72163453     0.15100
C669        C  0.49203424  0.12736834  0.74997700     0.36700
C670        C  0.37596572  0.06187830  0.82437139     0.36600
N671        N  0.51576606  0.14008581  0.73462419    -0.43600
N672        N  0.35229135  0.04949294  0.84010422    -0.43600
C673        C  0.60476324  0.22739833  0.91761112     0.00000
C674        C  0.62554770  0.20996070  0.94376606    -0.11900
C675        C  0.64886848  0.22899836  0.96609992     0.02200
C676        C  0.65157140  0.26641129  0.96266444    -0.00100
C677        C  0.63134383  0.28383084  0.93618544    -0.11800
C678        C  0.60829186  0.26482197  0.91357118     0.02100
H679        H  0.62317033  0.18128572  0.94723750     0.15100
H680        H  0.63323908  0.31262951  0.93343541     0.15100
C681        C  0.58754013  0.28485316  0.88772699     0.36700
C682        C  0.66796195  0.20971182  0.99372905     0.36600
N683        N  0.57097236  0.30099431  0.86704603    -0.43600
N684        N  0.68317028  0.19421357  0.01590448    -0.43600
C685        C  0.45679291  0.22554281  0.91851345     0.00000
C686        C  0.45647999  0.26281647  0.91487032    -0.11900
C687        C  0.43455923  0.28401199  0.93657217     0.02200
C688        C  0.41192266  0.26785008  0.96228396    -0.00100
C689        C  0.41096334  0.23051973  0.96482692    -0.11800
C690        C  0.43330445  0.20930031  0.94348572     0.02100
H691        H  0.47427011  0.27562512  0.89572583     0.15100
H692        H  0.39358990  0.21787447  0.98446142     0.15100
C693        C  0.43137138  0.17105928  0.94784927     0.36700
C694        C  0.43573488  0.32222291  0.93165027     0.36600
N695        N  0.42974380  0.14044045  0.95150067    -0.43600
N696        N  0.43670542  0.35283300  0.92771066    -0.43600
C697        C  0.90921485  0.76576514  0.46163495     0.00000
C698        C  0.92503773  0.78329140  0.43237990    -0.11900
C699        C  0.94686376  0.76489959  0.40804188     0.02200
C700        C  0.95436592  0.72821619  0.41364405    -0.00100
C701        C  0.93707944  0.71043458  0.44212263    -0.11800
C702        C  0.91436763  0.72871878  0.46577908     0.02100
H703        H  0.92050620  0.81169040  0.42868106     0.15100
H704        H  0.94192145  0.68220726  0.44650421     0.15100
C705        C  0.89843894  0.70923411  0.49526042     0.36700
C706        C  0.96153081  0.78486201  0.37823045     0.36600
N707        N  0.88563817  0.69356905  0.51882949    -0.43600
N708        N  0.97282336  0.80104309  0.35423645    -0.43600
C709        C  0.80225851  0.87700652  0.45924323     0.00000
C710        C  0.76473148  0.87675366  0.46087931    -0.11900
C711        C  0.74427489  0.89869458  0.43828928     0.02200
C712        C  0.76141611  0.92104323  0.41286770    -0.00100
C713        C  0.79881743  0.91953744  0.40972416    -0.11800
C714        C  0.81928119  0.89813356  0.43275441     0.02100
H715        H  0.75131660  0.86042006  0.48089030     0.15100
H716        H  0.81234164  0.93632448  0.39017523     0.15100
C717        C  0.85769911  0.89855438  0.42861180     0.36700
C718        C  0.70581665  0.89777231  0.44198003     0.36600
N719        N  0.88848394  0.89900093  0.42531300    -0.43600
N720        N  0.67500918  0.89704475  0.44502594    -0.43600
C721        C  0.91264412  0.77142145  0.61224565     0.00000
C722        C  0.90913569  0.73414419  0.61370347    -0.19100
C723        C  0.93104534  0.71358472  0.63616677     0.02200
C724        C  0.95651302  0.73040889  0.65851359    -0.00100
C725        C  0.95845222  0.76775141  0.65880176    -0.11800
C726        C  0.93728059  0.78827484  0.63559507     0.02100
H727        H  0.89024435  0.72083618  0.59616131     0.15100
H728        H  0.97789784  0.78089735  0.67586172     0.15100
C729        C  0.94216485  0.82643764  0.63600361     0.36700
C730        C  0.92690849  0.67528312  0.63557096     0.36600
N731        N  0.94676365  0.85694154  0.63645260    -0.43600
N732        N  0.92362085  0.64459460  0.63500500    -0.43600
C733        C  0.10541070  0.73187106  0.65528070     0.00000
C734        C  0.10003442  0.76868183  0.65168149    -0.11900
C735        C  0.12139903  0.78906270  0.62854726     0.02200
C736        C  0.14920992  0.77257445  0.60855974    -0.00100
C737        C  0.15581763  0.73600273  0.61389041    -0.11800
C738        C  0.13417086  0.71563805  0.63689582     0.02100
H739        H  0.07820618  0.78139334  0.66604634     0.15100
H740        H  0.17735193  0.72300988  0.59937619     0.15100
C741        C  0.14241954  0.67830769  0.64182090     0.36700
C742        C  0.11383877  0.82677495  0.62594812     0.36600
N743        N  0.14899206  0.64842827  0.64606843    -0.43600
N744        N  0.10768584  0.85696252  0.62380560    -0.43600
C745        C  0.15702044  0.57282657  0.79877310     0.00000
C746        C  0.14347965  0.60288113  0.81672930    -0.11900
C747        C  0.12045361  0.62689735  0.79928767     0.02200
C748        C  0.10979889  0.62038307  0.76328419    -0.00100
C749        C  0.12452430  0.59085867  0.74515390    -0.11800
C750        C  0.14786267  0.56727253  0.76243048     0.02100
H751        H  0.15065195  0.60739355  0.84466449     0.15100
H752        H  0.11705131  0.58546869  0.71747155     0.15100
C753        C  0.15983616  0.53618139  0.74292203     0.36700
C754        C  0.10769026  0.65726558  0.81945182     0.36600
N755        N  0.16912079  0.51127545  0.72708361    -0.43600
N756        N  0.09767855  0.68165568  0.83569218    -0.43600
C757        C  0.76372867  0.92909645  0.65317401     0.00000
C758        C  0.80121382  0.92988161  0.65454731    -0.11900
C759        C  0.82179992  0.90756020  0.63259133     0.02200
C760        C  0.80478780  0.88318006  0.60918457    -0.00100
C761        C  0.76729029  0.88112306  0.60924927    -0.11800
C762        C  0.74670552  0.90393334  0.63066039     0.02100
H763        H  0.81457488  0.94900883  0.67187087     0.15100
H764        H  0.75385861  0.86241156  0.59152979     0.15100
C765        C  0.70823444  0.90076877  0.62896466     0.36700
C766        C  0.86020511  0.91061871  0.63468422     0.36600
N767        N  0.67741740  0.89822358  0.62750089    -0.43600
N768        N  0.89093139  0.91367886  0.63659635    -0.43600
C769        C  0.65285256  0.07682444  0.76326875     0.00000
C770        C  0.65326262  0.07340795  0.80089610    -0.11900
C771        C  0.62984025  0.09320430  0.82248619     0.02200
C772        C  0.60596514  0.11778529  0.80643021    -0.00100
C773        C  0.60678591  0.12234110  0.76890920    -0.11800
C774        C  0.62948990  0.10182730  0.74727999     0.02100
H775        H  0.67093512  0.05413772  0.81343396     0.15100
H776        H  0.58880573  0.14118988  0.75623028     0.15100
C777        C  0.62799697  0.10702416  0.70881140     0.36700
C778        C  0.63098983  0.08754189  0.86092903     0.36600
N779        N  0.62636252  0.11132462  0.67801685    -0.43600
N780        N  0.63188701  0.08283065  0.89170888    -0.43600
C781        C  0.76357600  0.07638251  0.64914521     0.00000
C782        C  0.80103461  0.07548228  0.65146202    -0.11900
C783        C  0.82221702  0.09606066  0.62843792     0.02200
C784        C  0.80582179  0.11919092  0.60333481    -0.00100
C785        C  0.76834745  0.12103419  0.60194836    -0.11800
C786        C  0.74719386  0.09943688  0.62398444     0.02100
H787        H  0.81390156  0.05750881  0.67031241     0.15100
H788        H  0.75544400  0.13837819  0.58253061     0.15100
C789        C  0.70887540  0.10109471  0.61947507     0.36700
C790        C  0.86056371  0.09227483  0.63095061     0.36600
N791        N  0.67823064  0.10222212  0.61529580    -0.43600
N792        N  0.89124369  0.08869938  0.63289552    -0.43600
C793        C  0.61189743  0.88168100  0.80078499     0.00000
C794        C  0.63357430  0.90569759  0.81990281    -0.11900
C795        C  0.65570830  0.92987471  0.80189332     0.02200
C796        C  0.65619847  0.93035830  0.76391118    -0.00100
C797        C  0.63528984  0.90582015  0.74481235    -0.11800
C798        C  0.61334631  0.88151986  0.76274984     0.02100
H799        H  0.63271325  0.90609667  0.84909556     0.15100
H800        H  0.63567971  0.90597849  0.71559543     0.15100
C801        C  0.59155024  0.85816602  0.74107106     0.36700
C802        C  0.67585232  0.95514651  0.82307724     0.36600
N803        N  0.57446523  0.83962001  0.72311864    -0.43600
N804        N  0.69189806  0.97539411  0.84013652    -0.43600
C805        C  0.46390700  0.87946536  0.80150619     0.00000
C806        C  0.44290104  0.90414680  0.82066317    -0.11900
C807        C  0.41835286  0.92638820  0.80304028     0.02200
C808        C  0.41487874  0.92482404  0.76520891    -0.00100
C809        C  0.43548068  0.89993022  0.74604138    -0.11800
C810        C  0.45936316  0.87700713  0.76373808     0.02100
H811        H  0.44579553  0.90629736  0.84964447     0.15100
H812        H  0.43293992  0.89839979  0.71697732     0.15100
C813        C  0.47919353  0.85188077  0.74210468     0.36700
C814        C  0.39834363  0.95163213  0.82439344     0.36600
N815        N  0.49458635  0.83155434  0.72450188    -0.43600
N816        N  0.38227510  0.97169794  0.84168492    -0.43600
C817        C  0.46683793  0.76690597  0.90982147     0.00000
C818        C  0.47387873  0.73055871  0.91476188    -0.11900
C819        C  0.45232065  0.70973831  0.93722131     0.02200
C820        C  0.42260255  0.72536900  0.95495041    -0.00100
C821        C  0.41477554  0.76155067  0.94854465    -0.11800
C822        C  0.43666789  0.78235101  0.92633960     0.02100
H823        H  0.49702830  0.71862251  0.90190311     0.15100
H824        H  0.39191072  0.77393227  0.96148989     0.15100
C825        C  0.42720642  0.81921594  0.92013855     0.36700
C826        C  0.46165803  0.67257215  0.94143364     0.36600
N827        N  0.41967359  0.84870647  0.91485561    -0.43600
N828        N  0.46929350  0.64283159  0.94479576    -0.43600
C829        C  0.65665756  0.72879350  0.95964130     0.00000
C830        C  0.63189344  0.71114047  0.93749987    -0.11900
C831        C  0.61047791  0.72996663  0.91306127     0.02200
C832        C  0.61312096  0.76750766  0.91079333    -0.00100
C833        C  0.63865283  0.78509520  0.93203712    -0.11800
C834        C  0.66062765  0.76617688  0.95597655     0.02100
H835        H  0.62872193  0.68242220  0.93975014     0.15100
H836        H  0.64101427  0.81393333  0.93038687     0.15100
C837        C  0.68563102  0.78615981  0.97763781     0.36700
C838        C  0.58453226  0.71020746  0.89233392     0.36600
N839        N  0.70573057  0.80216179  0.99494085    -0.43600
N840        N  0.56382040  0.69425746  0.87573489    -0.43600
C841        C  0.80065457  0.57164830  0.15840300     0.00000
C842        C  0.76471771  0.56327136  0.15210523    -0.11900
C843        C  0.74344144  0.58479095  0.13000426     0.02200
C844        C  0.75810627  0.61593782  0.11409520    -0.00100
C845        C  0.79365734  0.62528214  0.12240104    -0.11800
C846        C  0.81496862  0.60335998  0.14413406     0.02100
H847        H  0.75360441  0.53892196  0.16332690     0.15100
H848        H  0.80533945  0.64924804  0.11101517     0.15100
C849        C  0.85123215  0.61416278  0.15187728     0.36700
C850        C  0.70706820  0.57345400  0.12371858     0.36600
N851        N  0.88023245  0.62286767  0.15827802    -0.43600
N852        N  0.67801588  0.56403107  0.11873823    -0.43600
C853        C  0.60606985  0.77304917  0.15225593     0.00000
C854        C  0.60833866  0.73603906  0.15787477    -0.11900
C855        C  0.63091778  0.71482094  0.13682998     0.02200
C856        C  0.65212778  0.73066974  0.10977894    -0.00100
C857        C  0.65167452  0.76786397  0.10565983    -0.11800
C858        C  0.62876837  0.78910479  0.12640955     0.02100
H859        H  0.59154918  0.72338647  0.17792844     0.15100
H860        H  0.66819388  0.78024443  0.08519400     0.15100
C861        C  0.62920765  0.82717493  0.12042438     0.36700
C862        C  0.63197474  0.67690345  0.14373846     0.36600
N863        N  0.62960994  0.85766383  0.11553009    -0.43600
N864        N  0.63289304  0.64653476  0.14928045    -0.43600
C865        C  0.95980891  0.61976460  0.76760127     0.00000
C866        C  0.92998015  0.60572301  0.74967546    -0.11900
C867        C  0.90543891  0.58372351  0.76762259     0.02200
C868        C  0.91111543  0.57464082  0.80421085    -0.00100
C869        C  0.94069956  0.58949547  0.82219021    -0.11800
C870        C  0.96482135  0.61191543  0.80435900     0.02100
H871        H  0.92591912  0.61188582  0.72144054     0.15100
H872        H  0.94555012  0.58300525  0.85020668     0.15100
C873        C  0.99570738  0.62458581  0.82385912     0.36700
C874        C  0.87538605  0.57036795  0.74733545     0.36600
N875        N  0.02047849  0.63455874  0.83955304    -0.43600
N876        N  0.85126205  0.55994755  0.73092248    -0.43600
C877        C  0.79902453  0.56970023  0.91684717     0.00000
C878        C  0.81761191  0.58918542  0.94317098    -0.11900
C879        C  0.79950717  0.61118123  0.96751600     0.02200
C880        C  0.76189142  0.61407732  0.96580126    -0.00100
C881        C  0.74320500  0.59449074  0.93972155    -0.11800
C882        C  0.76130226  0.57254109  0.91526260     0.02100
H883        H  0.84646991  0.58694089  0.94507636     0.15100
H884        H  0.71427541  0.59630256  0.93845491     0.15100
C885        C  0.74018081  0.55232242  0.88994014     0.36700
C886        C  0.82008704  0.62888346  0.99513598     0.36600
N887        N  0.72311574  0.53619248  0.86970970    -0.43600
N888        N  0.83654096  0.64294834  0.01735515    -0.43600
C889        C  0.76128294  0.37812782  0.95721074     0.00000
C890        C  0.74316169  0.39506524  0.92886924    -0.11900
C891        C  0.76143645  0.41725781  0.90461756     0.02200
C892        C  0.79852581  0.42341829  0.90921431    -0.00100
C893        C  0.81665433  0.40521909  0.93681996    -0.11800
C894        C  0.79854089  0.38280894  0.96063669     0.02100
H895        H  0.71451057  0.39125903  0.92593315     0.15100
H896        H  0.84516120  0.40930925  0.94062266     0.15100
C897        C  0.81851616  0.36708830  0.98992064     0.36700
C898        C  0.74111878  0.43410207  0.87626996     0.36600
N899        N  0.83449944  0.35462028  0.01344690    -0.43600
N900        N  0.72471917  0.44735831  0.85347831    -0.43600
C901        C  0.95516500  0.38075598  0.76177430     0.00000
C902        C  0.93800945  0.40883130  0.74351904    -0.11900
C903        C  0.91438970  0.43167903  0.76132542     0.02200
C904        C  0.90791566  0.42698829  0.79839538    -0.00100
C905        C  0.92375641  0.39814705  0.81641911    -0.11800
C906        C  0.94675064  0.37469099  0.79842135     0.02100
H907        H  0.94357606  0.41350173  0.71523795     0.15100
H908        H  0.91840165  0.39415146  0.84485524     0.15100
C909        C  0.96172503  0.34540888  0.81868429     0.36700
C910        C  0.89899857  0.46086932  0.74125500     0.36600
N911        N  0.97341890  0.32192151  0.83514619    -0.43600
N912        N  0.88683768  0.48407341  0.72475940    -0.43600
loop_ 
_geom_bond_atom_site_label_1 
_geom_bond_atom_site_label_2 
_geom_bond_distance 
_geom_bond_site_symmetry_2 
_ccdc_geom_bond_type 
O1            V9   1.893       .  S
O1           C11   1.264       .  A
O2            V9   1.887       .  S
O2           C12   1.263       .  A
O3            V9   1.890       .  S
O3           C13   1.262       .  A
O4            V9   1.892       .  S
O4           C14   1.263       .  A
O5           V10   1.899       .  S
O5           C14   1.265       .  A
O6           V10   1.900       .  S
O6           C13   1.264       .  A
O7           V10   1.906       .  S
O7           C12   1.265       .  A
O8           V10   1.905       .  S
O8           C11   1.266       .  A
V9           V10   2.085       .  T
C11         C868   1.489       .  S
C12         C892   1.485       .  S
C13         C904   1.472       .  S
C14         C877   1.482       .  S
O15          V23   1.898       .  S
O15          C25   1.264       .  A
O16          V23   1.896       .  S
O16          C26   1.264   1_554  A
O17          V23   1.902   1_556  S
O17          C27   1.265       .  A
O18          V23   1.900       .  S
O18          C28   1.266       .  A
O19          V24   1.897       .  S
O19          C28   1.264       .  A
O20          V24   1.900       .  S
O20          C27   1.265   1_554  A
O21          V24   1.894       .  S
O21          C26   1.263   1_554  A
O22          V24   1.893       .  S
O22          C25   1.263       .  A
V23          V24   2.085       .  T
C25         C856   1.475       .  S
C26         C880   1.477       .  S
C27         C829   1.487       .  S
C28         C844   1.489       .  S
O29          V37   1.895       .  S
O29          C39   1.263       .  A
O30          V37   1.896       .  S
O30          C40   1.263       .  A
O31          V37   1.903       .  S
O31          C41   1.265       .  A
O32          V37   1.905       .  S
O32          C42   1.266       .  A
O33          V38   1.900       .  S
O33          C42   1.265       .  A
O34          V38   1.901       .  S
O34          C41   1.265       .  A
O35          V38   1.891       .  S
O35          C40   1.263       .  A
O36          V38   1.893       .  S
O36          C39   1.263       .  A
V37          V38   2.087       .  T
C39         C817   1.469       .  S
C40         C793   1.477       .  S
C41         C832   1.484       .  S
C42         C805   1.490       .  S
O43          V51   1.894       .  S
O43          C53   1.263       .  A
O44          V51   1.891   1_565  S
O44          C54   1.263       .  A
O45          V51   1.888   1_565  S
O45          C55   1.263       .  A
O46          V51   1.889       .  S
O46          C56   1.262       .  A
O47          V52   1.895       .  S
O47          C56   1.264       .  A
O48          V52   1.894   1_565  S
O48          C55   1.263       .  A
O49          V52   1.899   1_565  S
O49          C54   1.265       .  A
O50          V52   1.899       .  S
O50          C53   1.265       .  A
V51          V52   2.087       .  T
C53         C769   1.478       .  S
C54         C757   1.478       .  S
C55         C796   1.471       .  S
C56         C781   1.475       .  S
O57          V65   1.905   1_655  S
O57          C67   1.266       .  A
O58          V65   1.906       .  S
O58          C68   1.266       .  A
O59          V65   1.901       .  S
O59          C69   1.264       .  A
O60          V65   1.901   1_655  S
O60          C70   1.265       .  A
O61          V66   1.897   1_655  S
O61          C70   1.263       .  A
O62          V66   1.898       .  S
O62          C69   1.264       .  A
O63          V66   1.892       .  S
O63          C68   1.264       .  A
O64          V66   1.892   1_655  S
O64          C67   1.263       .  A
V65          V66   2.086       .  T
C67         C724   1.479       .  S
C68         C748   1.490       .  S
C69         C733   1.478       .  S
C70         C865   1.476       .  S
O71          V79   1.902       .  S
O71          C81   1.266       .  A
O72          V79   1.904       .  S
O72          C82   1.266       .  A
O73          V79   1.899       .  S
O73          C83   1.264       .  A
O74          V79   1.897       .  S
O74          C84   1.264       .  A
O75          V80   1.897       .  S
O75          C84   1.264       .  A
O76          V80   1.895       .  S
O76          C83   1.264       .  A
O77          V80   1.896       .  S
O77          C82   1.264       .  A
O78          V80   1.898       .  S
O78          C81   1.264       .  A
V79          V80   2.087       .  T
C81         C721   1.483       .  S
C82         C709   1.483       .  S
C83         C697   1.475       .  S
C84         C760   1.479       .  S
O85          V93   1.893       .  S
O85          C95   1.263       .  A
O86          V93   1.895       .  S
O86          C96   1.264       .  A
O87          V93   1.901       .  S
O87          C97   1.266       .  A
O88          V93   1.901       .  S
O88          C98   1.264       .  A
O89          V94   1.893       .  S
O89          C98   1.262       .  A
O90          V94   1.894       .  S
O90          C97   1.263       .  A
O91          V94   1.897       .  S
O91          C96   1.265       .  A
O92          V94   1.896       .  S
O92          C95   1.265       .  A
V93          V94   2.086       .  T
C95         C685   1.478       .  S
C96         C772   1.481       .  S
C97         C673   1.485       .  S
C98         C661   1.473       .  S
O99         V107   1.899   1_556  S
O99         C109   1.264       .  A
O100        V107   1.898       .  S
O100        C110   1.264       .  A
O101        V107   1.896       .  S
O101        C111   1.264       .  A
O102        V107   1.896   1_556  S
O102        C112   1.264       .  A
O103        V108   1.901   1_556  S
O103        C112   1.265       .  A
O104        V108   1.903       .  S
O104        C111   1.266       .  A
O105        V108   1.893       .  S
O105        C110   1.263       .  A
O106        V108   1.894   1_556  S
O106        C109   1.263       .  A
V107        V108   2.087       .  T
C109        C889   1.475       .  S
C110        C649   1.475       .  S
C111        C640   1.487       .  S
C112        C676   1.478       .  S
O113        V121   1.906       .  S
O113        C123   1.265       .  A
O114        V121   1.904       .  S
O114        C124   1.266       .  A
O115        V121   1.899       .  S
O115        C125   1.265       .  A
O116        V121   1.894       .  S
O116        C126   1.262       .  A
O117        V122   1.900       .  S
O117        C126   1.265       .  A
O118        V122   1.893       .  S
O118        C125   1.264       .  A
O119        V122   1.893       .  S
O119        C124   1.262       .  A
O120        V122   1.888       .  S
O120        C123   1.261       .  A
V121        V122   2.087       .  T
C123        C616   1.469       .  S
C124        C637   1.477       .  S
C125        C625   1.486       .  S
C126        C841   1.471       .  S
O127        V135   1.903   1_655  S
O127        C137   1.264       .  A
O128        V135   1.903       .  S
O128        C138   1.265       .  A
O129        V135   1.895       .  S
O129        C139   1.264       .  A
O130        V135   1.894   1_655  S
O130        C140   1.263       .  A
O131        V136   1.903   1_655  S
O131        C140   1.267       .  A
O132        V136   1.897       .  S
O132        C139   1.264       .  A
O133        V136   1.892       .  S
O133        C138   1.263       .  A
O134        V136   1.892   1_655  S
O134        C137   1.262       .  A
V135        V136   2.087       .  T
C137        C613   1.469       .  S
C138        C589   1.477       .  S
C139        C601   1.475       .  S
C140        C700   1.488       .  S
O141        V149   1.891       .  S
O141        C151   1.262       .  A
O142        V149   1.891       .  S
O142        C152   1.262       .  A
O143        V149   1.894       .  S
O143        C153   1.264       .  A
O144        V149   1.895       .  S
O144        C154   1.264       .  A
O145        V150   1.899       .  S
O145        C154   1.265       .  A
O146        V150   1.900       .  S
O146        C153   1.264       .  A
O147        V150   1.905       .  S
O147        C152   1.267       .  A
O148        V150   1.908       .  S
O148        C151   1.267       .  A
V149        V150   2.085       .  T
C151        C736   1.488       .  S
C152        C577   1.483       .  S
C153        C592   1.484       .  S
C154        C565   1.484       .  S
O155        V163   1.895   1_545  S
O155        C165   1.263       .  A
O156        V163   1.898       .  S
O156        C166   1.264       .  A
O157        V163   1.905       .  S
O157        C167   1.266       .  A
O158        V163   1.904   1_545  S
O158        C168   1.265       .  A
O159        V164   1.896   1_545  S
O159        C168   1.265       .  A
O160        V164   1.897       .  S
O160        C167   1.264       .  A
O161        V164   1.898       .  S
O161        C166   1.264       .  A
O162        V164   1.896   1_545  S
O162        C165   1.265       .  A
V163        V164   2.086       .  T
C165        C664   1.485       .  S
C166        C568   1.477       .  S
C167        C808   1.484       .  S
C168        C553   1.486       .  S
O169        V177   1.904       .  S
O169        C179   1.266       .  A
O170        V177   1.905   1_545  S
O170        C180   1.266       .  A
O171        V177   1.901   1_545  S
O171        C181   1.265       .  A
O172        V177   1.902       .  S
O172        C182   1.265       .  A
O173        V178   1.898       .  S
O173        C182   1.265       .  A
O174        V178   1.899   1_545  S
O174        C181   1.264       .  A
O175        V178   1.893   1_545  S
O175        C180   1.264       .  A
O176        V178   1.896       .  S
O176        C179   1.263       .  A
V177        V178   2.085       .  T
C179        C712   1.484       .  S
C180        C541   1.488       .  S
C181        C517   1.480       .  S
C182        C529   1.482       .  S
O183        V191   1.894       .  S
O183        C193   1.264       .  A
O184        V191   1.896       .  S
O184        C194   1.264       .  A
O185        V191   1.898       .  S
O185        C195   1.264       .  A
O186        V191   1.897       .  S
O186        C196   1.264       .  A
O187        V192   1.899       .  S
O187        C196   1.264       .  A
O188        V192   1.901       .  S
O188        C195   1.266       .  A
O189        V192   1.896       .  S
O189        C194   1.264       .  A
O190        V192   1.897       .  S
O190        C193   1.263       .  A
V191        V192   2.086       .  T
C193        C508   1.476       .  S
C194        C853   1.481       .  S
C195        C532   1.485       .  S
C196        C496   1.480       .  S
O197        V205   1.905       .  S
O197        C207   1.266       .  A
O198        V205   1.905       .  S
O198        C208   1.266       .  A
O199        V205   1.902       .  S
O199        C209   1.264       .  A
O200        V205   1.900       .  S
O200        C210   1.265       .  A
O201        V206   1.890       .  S
O201        C210   1.263       .  A
O202        V206   1.892       .  S
O202        C209   1.265       .  A
O203        V206   1.897       .  S
O203        C208   1.264       .  A
O204        V206   1.897       .  S
O204        C207   1.263       .  A
V205        V206   2.086       .  T
C207        C745   1.478       .  S
C208        C481   1.485       .  S
C209        C457   1.487       .  S
C210        C469   1.475       .  S
O211        V219   1.895       .  S
O211        C221   1.263       .  A
O212        V219   1.895   1_556  S
O212        C222   1.263       .  A
O213        V219   1.892   1_556  S
O213        C223   1.263       .  A
O214        V219   1.890       .  S
O214        C224   1.263       .  A
O215        V220   1.898       .  S
O215        C224   1.264       .  A
O216        V220   1.898   1_556  S
O216        C223   1.265       .  A
O217        V220   1.895   1_556  S
O217        C222   1.264       .  A
O218        V220   1.898       .  S
O218        C221   1.265       .  A
V219        V220   2.086       .  T
C221        C493   1.481       .  S
C222        C472   1.478       .  S
C223        C820   1.484       .  S
C224        C448   1.477       .  S
O225        V233   1.896       .  S
O225        C235   1.264       .  A
O226        V233   1.897       .  S
O226        C236   1.264       .  A
O227        V233   1.896       .  S
O227        C237   1.264       .  A
O228        V233   1.900       .  S
O228        C238   1.264       .  A
O229        V234   1.888       .  S
O229        C238   1.263       .  A
O230        V234   1.889       .  S
O230        C237   1.262       .  A
O231        V234   1.898       .  S
O231        C236   1.265       .  A
O232        V234   1.897       .  S
O232        C235   1.265       .  A
V233        V234   2.087       .  T
C235        C604   1.484       .  S
C236        C421   1.480       .  S
C237        C436   1.472       .  S
C238        C445   1.476       .  S
O239        V247   1.905   1_556  S
O239        C249   1.266       .  A
O240        V247   1.907       .  S
O240        C250   1.266       .  A
O241        V247   1.902       .  S
O241        C251   1.265       .  A
O242        V247   1.898       .  S
O242        C252   1.264   1_554  A
O243        V248   1.890   1_556  S
O243        C252   1.262       .  A
O244        V248   1.893       .  S
O244        C251   1.263       .  A
O245        V248   1.897       .  S
O245        C250   1.264       .  A
O246        V248   1.898   1_556  S
O246        C249   1.265       .  A
V247        V248   2.086       .  T
C249        C484   1.488       .  S
C250        C412   1.488       .  S
C251        C424   1.482       .  S
C252        C688   1.475       .  S
O253        V261   1.889       .  S
O253        C263   1.262       .  A
O254        V261   1.890       .  S
O254        C264   1.262       .  A
O255        V261   1.907       .  S
O255        C265   1.266       .  A
O256        V261   1.902       .  S
O256        C266   1.265       .  A
O257        V262   1.898       .  S
O257        C266   1.264       .  A
O258        V262   1.896       .  S
O258        C265   1.264       .  A
O259        V262   1.900       .  S
O259        C264   1.264       .  A
O260        V262   1.900       .  S
O260        C263   1.265       .  A
V261        V262   2.085       .  T
C263        C652   1.476       .  S
C264        C397   1.472       .  S
C265        C409   1.485       .  S
C266        C544   1.481       .  S
O267        V275   1.898   1_655  S
O267        C277   1.264       .  A
O268        V275   1.899       .  S
O268        C278   1.264       .  A
O269        V275   1.889       .  S
O269        C279   1.262       .  A
O270        V275   1.888   1_655  S
O270        C280   1.263       .  A
O271        V276   1.900   1_655  S
O271        C280   1.264       .  A
O272        V276   1.901       .  S
O272        C279   1.266       .  A
O273        V276   1.898       .  S
O273        C278   1.264       .  A
O274        V276   1.897   1_655  S
O274        C277   1.264       .  A
V275        V276   2.086       .  T
C277        C373   1.479       .  S
C278        C460   1.474       .  S
C279        C385   1.478       .  S
C280        C901   1.482       .  S
O281        V289   1.889       .  S
O281        C291   1.263       .  A
O282        V289   1.890       .  S
O282        C292   1.262       .  A
O283        V289   1.895       .  S
O283        C293   1.263       .  A
O284        V289   1.893       .  S
O284        C294   1.263       .  A
O285        V290   1.892       .  S
O285        C294   1.263       .  A
O286        V290   1.895       .  S
O286        C293   1.263       .  A
O287        V290   1.908       .  S
O287        C292   1.268       .  A
O288        V290   1.908       .  S
O288        C291   1.267       .  A
V289        V290   2.086       .  T
C291        C376   1.484       .  S
C292        C520   1.488       .  S
C293        C364   1.469       .  S
C294        C784   1.476       .  S
O295        V303   1.897       .  S
O295        C305   1.264       .  A
O296        V303   1.896       .  S
O296        C306   1.264       .  A
O297        V303   1.887       .  S
O297        C307   1.261       .  A
O298        V303   1.889       .  S
O298        C308   1.262       .  A
O299        V304   1.905       .  S
O299        C308   1.265       .  A
O300        V304   1.901       .  S
O300        C307   1.265       .  A
O301        V304   1.899       .  S
O301        C306   1.264       .  A
O302        V304   1.901       .  S
O302        C305   1.265       .  A
V303        V304   2.087       .  T
C305        C340   1.484       .  S
C306        C556   1.479       .  S
C307        C388   1.475       .  S
C308        C352   1.479       .  S
O309        V317   1.899   1_565  S
O309        C319   1.264       .  A
O310        V317   1.896       .  S
O310        C320   1.263       .  A
O311        V317   1.897       .  S
O311        C321   1.263       .  A
O312        V317   1.888   1_565  S
O312        C322   1.262       .  A
O313        V318   1.902   1_565  S
O313        C322   1.266       .  A
O314        V318   1.894       .  S
O314        C321   1.265       .  A
O315        V318   1.898       .  S
O315        C320   1.262       .  A
O316        V318   1.898   1_565  S
O316        C319   1.264       .  A
V317        V318   2.086       .  T
C319        C580   1.481       .  S
C320        C400   1.467       .  S
C321        C349   1.481       .  S
C322        C505   1.481       .  S
O323        V331   1.896       .  S
O323        C333   1.265   1_455  A
O324        V331   1.895       .  S
O324        C334   1.263       .  A
O325        V331   1.893       .  S
O325        C335   1.264       .  A
O326        V331   1.893       .  S
O326        C336   1.262   1_455  A
O327        V332   1.900       .  S
O327        C336   1.265   1_455  A
O328        V332   1.902       .  S
O328        C335   1.265       .  A
O329        V332   1.895       .  S
O329        C334   1.264       .  A
O330        V332   1.893       .  S
O330        C333   1.263   1_455  A
V331        V332   2.085       .  T
C333        C361   1.483       .  S
C334        C433   1.480       .  S
C335        C337   1.482       .  S
C336        C628   1.472       .  S
C337        C338   1.404       .  A
C337        C342   1.413       .  A
C338        C339   1.397       .  A
C338        H343   1.087       .  S
C339        C340   1.413       .  A
C339        C346   1.443       .  S
C340        C341   1.407       .  A
C341        C342   1.402       .  A
C341        H344   1.086       .  S
C342        C345   1.444       .  S
C345        N347   1.157       .  T
C346        N348   1.157       .  T
C349        C350   1.402       .  A
C349        C354   1.416       .  A
C350        C351   1.394       .  A
C350        H355   1.084       .  S
C351        C352   1.412       .  A
C351        C358   1.443       .  S
C352        C353   1.405       .  A
C353        C354   1.404       .  A
C353        H356   1.084       .  S
C354        C357   1.444       .  S
C357        N359   1.157       .  T
C358        N360   1.156       .  T
C361        C362   1.408       .  A
C361        C366   1.417       .  A
C362        C363   1.398       .  A
C362        H367   1.084       .  S
C363        C364   1.407       .  A
C363        C370   1.444       .  S
C364        C365   1.400       .  A
C365        C366   1.398       .  A
C365        H368   1.085       .  S
C366        C369   1.445       .  S
C369        N371   1.157       .  T
C370        N372   1.157       .  T
C373        C374   1.401       .  A
C373        C378   1.413       .  A
C374        C375   1.397       .  A
C374        H379   1.087       .  S
C375        C376   1.416       .  A
C375        C382   1.444       .  S
C376        C377   1.406       .  A
C377        C378   1.403       .  A
C377        H380   1.086       .  S
C378        C381   1.444       .  S
C381        N383   1.157       .  T
C382        N384   1.157       .  T
C385        C386   1.403       .  A
C385        C390   1.415       .  A
C386        C387   1.398       .  A
C386        H391   1.086       .  S
C387        C388   1.413       .  A
C387        C394   1.445       .  S
C388        C389   1.402       .  A
C389        C390   1.399       .  A
C389        H392   1.086       .  S
C390        C393   1.445       .  S
C393        N395   1.157       .  T
C394        N396   1.157       .  T
C397        C398   1.402       .  A
C397        C402   1.412       .  A
C398        C399   1.395       .  A
C398        H403   1.083       .  S
C399        C400   1.408       .  A
C399        C406   1.445       .  S
C400        C401   1.403       .  A
C401        C402   1.403       .  A
C401        H404   1.083       .  S
C402        C405   1.444       .  S
C405        N407   1.157       .  T
C406        N408   1.157   1_545  T
C409        C410   1.403       .  A
C409        C414   1.413       .  A
C410        C411   1.399       .  A
C410        H415   1.086       .  S
C411        C412   1.415       .  A
C411        C418   1.443       .  S
C412        C413   1.407       .  A
C413        C414   1.405       .  A
C413        H416   1.085       .  S
C414        C417   1.444       .  S
C417        N419   1.157       .  T
C418        N420   1.157       .  T
C421        C422   1.403       .  A
C421        C426   1.413       .  A
C422        C423   1.399       .  A
C422        H427   1.085       .  S
C423        C424   1.414       .  A
C423        C430   1.444       .  S
C424        C425   1.405       .  A
C425        C426   1.401       .  A
C425        H428   1.085       .  S
C426        C429   1.444       .  S
C429        N431   1.157       .  T
C430        N432   1.157       .  T
C433        C434   1.405       .  A
C433        C438   1.416       .  A
C434        C435   1.397       .  A
C434        H439   1.084       .  S
C435        C436   1.412       .  A
C435        C442   1.445       .  S
C436        C437   1.401       .  A
C437        C438   1.398       .  A
C437        H440   1.085       .  S
C438        C441   1.444       .  S
C441        N443   1.157       .  T
C442        N444   1.157       .  T
C445        C446   1.402       .  A
C445        C450   1.412       .  A
C446        C447   1.394       .  A
C446        H451   1.086       .  S
C447        C448   1.412       .  A
C447        C454   1.444       .  S
C448        C449   1.406       .  A
C449        C450   1.401       .  A
C449        H452   1.086       .  S
C450        C453   1.444       .  S
C453        N455   1.157       .  T
C454        N456   1.157       .  T
C457        C458   1.406       .  A
C457        C462   1.418       .  A
C458        C459   1.396       .  A
C458        H463   1.084       .  S
C459        C460   1.408       .  A
C459        C466   1.443       .  S
C460        C461   1.402       .  A
C461        C462   1.403       .  A
C461        H464   1.085       .  S
C462        C465   1.444       .  S
C465        N467   1.157       .  T
C466        N468   1.156       .  T
C469        C470   1.404       .  A
C469        C474   1.412       .  A
C470        C471   1.400       .  A
C470        H475   1.084       .  S
C471        C472   1.414       .  A
C471        C478   1.444       .  S
C472        C473   1.404       .  A
C473        C474   1.397       .  A
C473        H476   1.084       .  S
C474        C477   1.445       .  S
C477        N479   1.157       .  T
C478        N480   1.157       .  T
C481        C482   1.405       .  A
C481        C486   1.414       .  A
C482        C483   1.402       .  A
C482        H487   1.086       .  S
C483        C484   1.415       .  A
C483        C490   1.444       .  S
C484        C485   1.406       .  A
C485        C486   1.402       .  A
C485        H488   1.086       .  S
C486        C489   1.444       .  S
C489        N491   1.157       .  T
C490        N492   1.157       .  T
C493        C494   1.404       .  A
C493        C498   1.414       .  A
C494        C495   1.398       .  A
C494        H499   1.085       .  S
C495        C496   1.413       .  A
C495        C502   1.442       .  S
C496        C497   1.404       .  A
C497        C498   1.399       .  A
C497        H500   1.085       .  S
C498        C501   1.443       .  S
C501        N503   1.157       .  T
C502        N504   1.156       .  T
C505        C506   1.405       .  A
C505        C510   1.415       .  A
C506        C507   1.400       .  A
C506        H511   1.085       .  S
C507        C508   1.412       .  A
C507        C514   1.442       .  S
C508        C509   1.401       .  A
C509        C510   1.395       .  A
C509        H512   1.086       .  S
C510        C513   1.444       .  S
C513        N515   1.157       .  T
C514        N516   1.157       .  T
C517        C518   1.402       .  A
C517        C522   1.412       .  A
C518        C519   1.401       .  A
C518        H523   1.086       .  S
C519        C520   1.418       .  A
C519        C526   1.445       .  S
C520        C521   1.406       .  A
C521        C522   1.401       .  A
C521        H524   1.085       .  S
C522        C525   1.444       .  S
C525        N527   1.157       .  T
C526        N528   1.157       .  T
C529        C530   1.404       .  A
C529        C534   1.413       .  A
C530        C531   1.401       .  A
C530        H535   1.084       .  S
C531        C532   1.416       .  A
C531        C538   1.444       .  S
C532        C533   1.405       .  A
C533        C534   1.401       .  A
C533        H536   1.084       .  S
C534        C537   1.443       .  S
C537        N539   1.157       .  T
C538        N540   1.157       .  T
C541        C542   1.406       .  A
C541        C546   1.416       .  A
C542        C543   1.398       .  A
C542        H547   1.085       .  S
C543        C544   1.412       .  A
C543        C550   1.445       .  S
C544        C545   1.404       .  A
C545        C546   1.403       .  A
C545        H548   1.085       .  S
C546        C549   1.443       .  S
C549        N551   1.157       .  T
C550        N552   1.157       .  T
C553        C554   1.406       .  A
C553        C558   1.415       .  A
C554        C555   1.399       .  A
C554        H559   1.087       .  S
C555        C556   1.412       .  A
C555        C562   1.445       .  S
C556        C557   1.404       .  A
C557        C558   1.402       .  A
C557        H560   1.087       .  S
C558        C561   1.444       .  S
C561        N563   1.157       .  T
C562        N564   1.157       .  T
C565        C566   1.406       .  A
C565        C570   1.415       .  A
C566        C567   1.400       .  A
C566        H571   1.085       .  S
C567        C568   1.411       .  A
C567        C574   1.444       .  S
C568        C569   1.402       .  A
C569        C570   1.399       .  A
C569        H572   1.086       .  S
C570        C573   1.444       .  S
C573        N575   1.157       .  T
C574        N576   1.157       .  T
C577        C578   1.404       .  A
C577        C582   1.416       .  A
C578        C579   1.400       .  A
C578        H583   1.086       .  S
C579        C580   1.413       .  A
C579        C586   1.443       .  S
C580        C581   1.403       .  A
C581        C582   1.399       .  A
C581        H584   1.086       .  S
C582        C585   1.445       .  S
C585        N587   1.157       .  T
C586        N588   1.157       .  T
C589        C590   1.403       .  A
C589        C594   1.410       .  A
C590        C591   1.400       .  A
C590        H595   1.087       .  S
C591        C592   1.416       .  A
C591        C598   1.444       .  S
C592        C593   1.406       .  A
C593        C594   1.399       .  A
C593        H596   1.087       .  S
C594        C597   1.443       .  S
C597        N599   1.157       .  T
C598        N600   1.157       .  T
C601        C602   1.402       .  A
C601        C606   1.410       .  A
C602        C603   1.397       .  A
C602        H607   1.086       .  S
C603        C604   1.416       .  A
C603        C610   1.444       .  S
C604        C605   1.408       .  A
C605        C606   1.400       .  A
C605        H608   1.086       .  S
C606        C609   1.444       .  S
C609        N611   1.157       .  T
C610        N612   1.157       .  T
C613        C614   1.403       .  A
C613        C618   1.410       .  A
C614        C615   1.404       .  A
C614        H619   1.083       .  S
C615        C616   1.409       .  A
C615        C622   1.443       .  S
C616        C617   1.401       .  A
C617        C618   1.396       .  A
C617        H620   1.084       .  S
C618        C621   1.446   1_655  S
C621        N623   1.157       .  T
C622        N624   1.157       .  T
C625        C626   1.408       .  A
C625        C630   1.417       .  A
C626        C627   1.400       .  A
C626        H631   1.085       .  S
C627        C628   1.408       .  A
C627        C634   1.444       .  S
C628        C629   1.401       .  A
C629        C630   1.398       .  A
C629        H632   1.086       .  S
C630        C633   1.444       .  S
C633        N635   1.157       .  T
C634        N636   1.157       .  T
C637        C638   1.400       .  A
C637        C642   1.411       .  A
C638        C639   1.400       .  A
C638        H643   1.087       .  S
C639        C640   1.417       .  A
C639        C646   1.443       .  S
C640        C641   1.406       .  A
C641        C642   1.401       .  A
C641        H644   1.086       .  S
C642        C645   1.444       .  S
C645        N647   1.157       .  T
C646        N648   1.157       .  T
C649        C650   1.403       .  A
C649        C654   1.412       .  A
C650        C651   1.397       .  A
C650        H655   1.086       .  S
C651        C652   1.413       .  A
C651        C658   1.445       .  S
C652        C653   1.403       .  A
C653        C654   1.399       .  A
C653        H656   1.086       .  S
C654        C657   1.442       .  S
C657        N659   1.157       .  T
C658        N660   1.157       .  T
C661        C662   1.401       .  A
C661        C666   1.410       .  A
C662        C663   1.401       .  A
C662        H667   1.085       .  S
C663        C664   1.418       .  A
C663        C670   1.444       .  S
C664        C665   1.405       .  A
C665        C666   1.397       .  A
C665        H668   1.085       .  S
C666        C669   1.445       .  S
C669        N671   1.157       .  T
C670        N672   1.157       .  T
C673        C674   1.405       .  A
C673        C678   1.417       .  A
C674        C675   1.400       .  A
C674        H679   1.086       .  S
C675        C676   1.412       .  A
C675        C682   1.444       .  S
C676        C677   1.402       .  A
C677        C678   1.400       .  A
C677        H680   1.087       .  S
C678        C681   1.445       .  S
C681        N683   1.157       .  T
C682        N684   1.157   1_556  T
C685        C686   1.404       .  A
C685        C690   1.414       .  A
C686        C687   1.397       .  A
C686        H691   1.085       .  S
C687        C688   1.412       .  A
C687        C694   1.445       .  S
C688        C689   1.403       .  A
C689        C690   1.399       .  A
C689        H692   1.085       .  S
C690        C693   1.445       .  S
C693        N695   1.157       .  T
C694        N696   1.157       .  T
C697        C698   1.400       .  A
C697        C702   1.410       .  A
C698        C699   1.399       .  A
C698        H703   1.087       .  S
C699        C700   1.419       .  A
C699        C706   1.444       .  S
C700        C701   1.407       .  A
C701        C702   1.400       .  A
C701        H704   1.086       .  S
C702        C705   1.444       .  S
C705        N707   1.157       .  T
C706        N708   1.157       .  T
C709        C710   1.404       .  A
C709        C714   1.414       .  A
C710        C711   1.402       .  A
C710        H715   1.085       .  S
C711        C712   1.415       .  A
C711        C718   1.444       .  S
C712        C713   1.404       .  A
C713        C714   1.400       .  A
C713        H716   1.085       .  S
C714        C717   1.444       .  S
C717        N719   1.157       .  T
C718        N720   1.157       .  T
C721        C722   1.405       .  A
C721        C726   1.415       .  A
C722        C723   1.400       .  A
C722        H727   1.084       .  S
C723        C724   1.413       .  A
C723        C730   1.444       .  S
C724        C725   1.402       .  A
C725        C726   1.400       .  A
C725        H728   1.084       .  S
C726        C729   1.443       .  S
C729        N731   1.157       .  T
C730        N732   1.157       .  T
C733        C734   1.401       .  A
C733        C738   1.411       .  A
C734        C735   1.400       .  A
C734        H739   1.085       .  S
C735        C736   1.419       .  A
C735        C742   1.445       .  S
C736        C737   1.407       .  A
C737        C738   1.402       .  A
C737        H740   1.084       .  S
C738        C741   1.444       .  S
C741        N743   1.157       .  T
C742        N744   1.157       .  T
C745        C746   1.404       .  A
C745        C750   1.409       .  A
C746        C747   1.404       .  A
C746        H751   1.085       .  S
C747        C748   1.417       .  A
C747        C754   1.444       .  S
C748        C749   1.407       .  A
C749        C750   1.398       .  A
C749        H752   1.085       .  S
C750        C753   1.443       .  S
C753        N755   1.157       .  T
C754        N756   1.157       .  T
C757        C758   1.403       .  A
C757        C762   1.413       .  A
C758        C759   1.399       .  A
C758        H763   1.086       .  S
C759        C760   1.414       .  A
C759        C766   1.443       .  S
C760        C761   1.404       .  A
C761        C762   1.398       .  A
C761        H764   1.086       .  S
C762        C765   1.445       .  S
C765        N767   1.157       .  T
C766        N768   1.157       .  T
C769        C770   1.404       .  A
C769        C774   1.412       .  A
C770        C771   1.400       .  A
C770        H775   1.084       .  S
C771        C772   1.414       .  A
C771        C778   1.444       .  S
C772        C773   1.404       .  A
C773        C774   1.398       .  A
C773        H776   1.083       .  S
C774        C777   1.443       .  S
C777        N779   1.157       .  T
C778        N780   1.157       .  T
C781        C782   1.403       .  A
C781        C786   1.412       .  A
C782        C783   1.397       .  A
C782        H787   1.084       .  S
C783        C784   1.413       .  A
C783        C790   1.444       .  S
C784        C785   1.404       .  A
C785        C786   1.396       .  A
C785        H788   1.084       .  S
C786        C789   1.444       .  S
C789        N791   1.157       .  T
C790        N792   1.157       .  T
C793        C794   1.405       .  A
C793        C798   1.414       .  A
C794        C795   1.398       .  A
C794        H799   1.085       .  S
C795        C796   1.411       .  A
C795        C802   1.445       .  S
C796        C797   1.401       .  A
C797        C798   1.395       .  A
C797        H800   1.085       .  S
C798        C801   1.443       .  S
C801        N803   1.157       .  T
C802        N804   1.157       .  T
C805        C806   1.406       .  A
C805        C810   1.416       .  A
C806        C807   1.402       .  A
C806        H811   1.085       .  S
C807        C808   1.413       .  A
C807        C814   1.443       .  S
C808        C809   1.403       .  A
C809        C810   1.403       .  A
C809        H812   1.085       .  S
C810        C813   1.443       .  S
C813        N815   1.157       .  T
C814        N816   1.157       .  T
C817        C818   1.400       .  A
C817        C822   1.408       .  A
C818        C819   1.398       .  A
C818        H823   1.084       .  S
C819        C820   1.417       .  A
C819        C826   1.445       .  S
C820        C821   1.408       .  A
C821        C822   1.399       .  A
C821        H824   1.084       .  S
C822        C825   1.445       .  S
C825        N827   1.157       .  T
C826        N828   1.157       .  T
C829        C830   1.405       .  A
C829        C834   1.416       .  A
C830        C831   1.401       .  A
C830        H835   1.086       .  S
C831        C832   1.413       .  A
C831        C838   1.444       .  S
C832        C833   1.404       .  A
C833        C834   1.403       .  A
C833        H836   1.086       .  S
C834        C837   1.444       .  S
C837        N839   1.157       .  T
C838        N840   1.157       .  T
C841        C842   1.400       .  A
C841        C846   1.407       .  A
C842        C843   1.399       .  A
C842        H847   1.086       .  S
C843        C844   1.419       .  A
C843        C850   1.444       .  S
C844        C845   1.409       .  A
C845        C846   1.400       .  A
C845        H848   1.085       .  S
C846        C849   1.444       .  S
C849        N851   1.157       .  T
C850        N852   1.157       .  T
C853        C854   1.405       .  A
C853        C858   1.415       .  A
C854        C855   1.398       .  A
C854        H859   1.083       .  S
C855        C856   1.411       .  A
C855        C862   1.445       .  S
C856        C857   1.403       .  A
C857        C858   1.400       .  A
C857        H860   1.083       .  S
C858        C861   1.444       .  S
C861        N863   1.157       .  T
C862        N864   1.157       .  T
C865        C866   1.402       .  A
C865        C870   1.409       .  A
C866        C867   1.402       .  A
C866        H871   1.085       .  S
C867        C868   1.417       .  A
C867        C874   1.444       .  S
C868        C869   1.408       .  A
C869        C870   1.399       .  A
C869        H872   1.084       .  S
C870        C873   1.444       .  S
C873        N875   1.157   1_655  T
C874        N876   1.157       .  T
C877        C878   1.406       .  A
C877        C882   1.415       .  A
C878        C879   1.398       .  A
C878        H883   1.084       .  S
C879        C880   1.412       .  A
C879        C886   1.445       .  S
C880        C881   1.403       .  A
C881        C882   1.400       .  A
C881        H884   1.085       .  S
C882        C885   1.444       .  S
C885        N887   1.157       .  T
C886        N888   1.157   1_556  T
C889        C890   1.404       .  A
C889        C894   1.410       .  A
C890        C891   1.403       .  A
C890        H895   1.086       .  S
C891        C892   1.416       .  A
C891        C898   1.444       .  S
C892        C893   1.406       .  A
C893        C894   1.395       .  A
C893        H896   1.086       .  S
C894        C897   1.445       .  S
C897        N899   1.157   1_556  T
C898        N900   1.157       .  T
C901        C902   1.406       .  A
C901        C906   1.415       .  A
C902        C903   1.396       .  A
C902        H907   1.085       .  S
C903        C904   1.409       .  A
C903        C910   1.443       .  S
C904        C905   1.402       .  A
C905        C906   1.399       .  A
C905        H908   1.085       .  S
C906        C909   1.444       .  S
C909        N911   1.157       .  T
C910        N912   1.157       .  T
