geometry optimzed in LAMMPS
_audit_creation_date              2020-11-30 
_audit_creation_method            'lammps2cif' 
_symmetry_space_group_name_H-M    'P1' 
_symmetry_Int_Tables_number       1 
_symmetry_cell_setting            triclinic 
loop_ 
_symmetry_equiv_pos_as_xyz 
  x,y,z 
_cell_length_a                    50.84297834 
_cell_length_b                    46.012532318235564 
_cell_length_c                    25.55474407222423 
_cell_angle_alpha                 89.7259169713441 
_cell_angle_beta                  89.41778598369405 
_cell_angle_gamma                 88.81439222433906 
loop_ 
_atom_site_label 
_atom_site_type_symbol 
_atom_site_fract_x 
_atom_site_fract_y 
_atom_site_fract_z 
_atom_site_charge 
In1        In  0.33705109  0.68712707  0.38473782     1.36900
C2          C  0.32166136  0.69780863  0.48300952     0.77800
O3          O  0.31267888  0.64750437  0.38306458    -0.60700
O4          O  0.35419605  0.64164086  0.39245977    -0.51600
C5          C  0.32097285  0.69790055  0.28663414     0.70400
O6          O  0.30809441  0.70651598  0.32659497    -0.46400
C7          C  0.37352437  0.72752643  0.38320422     0.75100
O8          O  0.30787848  0.70528997  0.44390625    -0.58300
O9          O  0.37985104  0.70075184  0.38011954    -0.48400
O10         O  0.34257552  0.68388104  0.47181987    -0.54700
C11         C  0.33188528  0.62999967  0.38919506     0.85300
O12         O  0.34126764  0.68269286  0.29692576    -0.56600
O13         O  0.34919914  0.73290623  0.38667621    -0.59900
In14       In  0.30455972  0.72551348  0.13422160     1.36900
C15         C  0.31391312  0.70638103  0.23238826     0.77800
O16         O  0.34409782  0.74504193  0.13132880    -0.60700
O17         O  0.31121524  0.77423582  0.13408050    -0.51600
C18         C  0.31481739  0.70622877  0.03715317     0.70400
O19         O  0.32479201  0.69426906  0.07724905    -0.46400
C20         C  0.25295034  0.72265835  0.13004382     0.75100
O21         O  0.32201431  0.69279053  0.19220503    -0.58300
O22         O  0.26490734  0.74645717  0.13058566    -0.48400
O23         O  0.30027760  0.72886194  0.22232010    -0.54700
C24         C  0.33591734  0.77102591  0.13235011     0.85300
O25         O  0.29927631  0.72716181  0.04695445    -0.56600
O26         O  0.26741395  0.70002716  0.13293500    -0.59900
In27       In  0.14023331  0.68409708  0.37541194     1.36900
C28         C  0.15597343  0.69453974  0.27660335     0.77800
O29         O  0.16109579  0.64132122  0.38110179    -0.60700
O30         O  0.12029078  0.64113184  0.36295588    -0.51600
C31         C  0.15680275  0.69274918  0.47325789     0.70400
O32         O  0.17061313  0.69898256  0.43324746    -0.46400
C33         C  0.10558186  0.72757288  0.38218146     0.75100
O34         O  0.16989150  0.70069736  0.31578470    -0.58300
O35         O  0.09837481  0.70135200  0.38325276    -0.48400
O36         O  0.13474362  0.68223999  0.28799756    -0.54700
C37         C  0.14135361  0.62646746  0.36977517     0.85300
O38         O  0.13553710  0.68025900  0.46317691    -0.56600
O39         O  0.12996063  0.73103749  0.37705813    -0.59900
In40       In  0.17260232  0.72220164  0.12426205     1.35300
C41         C  0.16374175  0.70151843  0.02712573     0.77800
O42         O  0.13296877  0.74378979  0.12505634    -0.60700
O43         O  0.16598759  0.77108728  0.12741497    -0.51600
C44         C  0.16295194  0.70261305  0.22214110     0.70400
O45         O  0.15244058  0.69178522  0.18224095    -0.46400
C46         C  0.22432575  0.72182446  0.12646551     0.75100
O47         O  0.15502530  0.68938113  0.06808758    -0.58300
O48         O  0.21057415  0.74490001  0.12314517    -0.48400
O49         O  0.17766577  0.72322154  0.03596105    -0.54700
C50         C  0.14132438  0.76925569  0.12785494     0.85300
O51         O  0.17905481  0.72221439  0.21173723    -0.56600
O52         O  0.21160569  0.69844729  0.12704963    -0.59900
In53       In  0.08824757  0.83734926  0.13680315     1.36900
C54         C  0.07086064  0.82840496  0.03954994     0.77800
O55         O  0.06753621  0.88022466  0.14138316    -0.60700
O56         O  0.10869345  0.87961730  0.12422283    -0.51600
C57         C  0.07285341  0.82791369  0.23609453     0.70400
O58         O  0.05882342  0.82163078  0.19717369    -0.46400
C59         C  0.12321863  0.79425713  0.13166081     0.75100
O60         O  0.05768634  0.82127208  0.07988751    -0.58300
O61         O  0.13034078  0.82031874  0.13676605    -0.48400
O62         O  0.09174855  0.84151916  0.04918183    -0.54700
C63         C  0.08749945  0.89445786  0.12816934     0.85300
O64         O  0.09408466  0.84027578  0.22431230    -0.56600
O65         O  0.09876741  0.79075633  0.13026763    -0.59900
In66       In  0.05598314  0.79968524  0.38826496     1.36900
C67         C  0.08754526  0.75270759  0.38594175     0.77800
O68         O  0.04978774  0.79998232  0.30071034    -0.60700
O69         O  0.07625507  0.83042488  0.33069086    -0.51600
C70         C  0.50422652  0.80005973  0.38678660     0.70400
O71         O  0.01799587  0.77692404  0.38791352    -0.46400
C72         C  0.06398282  0.81997669  0.48564729     0.75100
O73         O  0.06289771  0.75083797  0.38803861    -0.58300
O74         O  0.07280972  0.83243212  0.44508047    -0.48400
O75         O  0.09584803  0.77826856  0.38644053    -0.54700
C76         C  0.06586379  0.81969054  0.29058090     0.85300
O77         O  0.01697679  0.82340930  0.38673611    -0.56600
O78         O  0.05032566  0.79816940  0.47629145    -0.59900
In79       In  0.39037522  0.83568366  0.13399426     1.36900
C80         C  0.40720016  0.82474654  0.23163307     0.77800
O81         O  0.41122035  0.87767528  0.12749587    -0.60700
O82         O  0.37049575  0.87901322  0.14916742    -0.51600
C83         C  0.40684215  0.82584473  0.03542736     0.70400
O84         O  0.42004104  0.81784532  0.07500403    -0.46400
C85         C  0.35442196  0.79497313  0.13242346     0.75100
O86         O  0.42089607  0.81814664  0.19148423    -0.58300
O87         O  0.34791228  0.82163889  0.12889059    -0.48400
O88         O  0.38577011  0.83771643  0.22166139    -0.54700
C89         C  0.39144785  0.89287941  0.14163833     0.85300
O90         O  0.38616240  0.84039539  0.04625200    -0.56600
O91         O  0.37870779  0.78979171  0.13643101    -0.59900
In92       In  0.42382234  0.79707658  0.38367061     1.36900
C93         C  0.39221073  0.75145028  0.38310372     0.77800
O94         O  0.42758834  0.79453719  0.47169745    -0.60700
O95         O  0.40575593  0.83020575  0.44068664    -0.51600
C96         C  0.47552884  0.79940366  0.38545549     0.70400
O97         O  0.46338361  0.77570966  0.38590366    -0.46400
C98         C  0.41446543  0.81651459  0.28578200     0.75100
O99         O  0.41691275  0.74822694  0.38147854    -0.58300
O100        O  0.40403874  0.82810623  0.32594794    -0.48400
O101        O  0.38417764  0.77747035  0.38501616    -0.54700
C102        C  0.41390976  0.81705650  0.48121883     0.85300
O103        O  0.46117913  0.82216046  0.38373522    -0.56600
O104        O  0.43047682  0.79605426  0.29578395    -0.59900
C105        C  0.32326096  0.54945908  0.42457067     0.86700
C106        C  0.33117181  0.58111766  0.43349897    -0.53600
C107        C  0.32813868  0.59832483  0.38996189     0.09600
C108        C  0.31743710  0.58253279  0.34196440     0.20600
C109        C  0.29521756  0.55122309  0.40321065    -0.54300
C110        C  0.29181457  0.56864469  0.36118264     0.09700
C111        C  0.33924601  0.53940659  0.37701871    -0.53800
C112        C  0.33649980  0.55606555  0.33291316     0.10300
H113        H  0.33768148  0.58930692  0.47087241     0.14800
H114        H  0.31504374  0.59761513  0.30839019     0.00500
H115        H  0.27895698  0.53885635  0.41908889     0.15100
H116        H  0.34647644  0.51725364  0.37465851     0.14900
C117        C  0.13659402  0.54585064  0.32929540     0.86700
C118        C  0.12874303  0.57861579  0.32984143    -0.53600
C119        C  0.14339869  0.59447709  0.36439997     0.09600
C120        C  0.16420576  0.57612860  0.39458769     0.20600
C121        C  0.16631839  0.54574882  0.31732525    -0.54300
C122        C  0.18096667  0.56163945  0.35079933     0.09700
C123        C  0.13353545  0.53700592  0.38586245    -0.53800
C124        C  0.14832362  0.55148162  0.41989224     0.10300
H125        H  0.11388185  0.58873309  0.30539358     0.14800
H126        H  0.17565671  0.58843741  0.42347213     0.00500
H127        H  0.17466131  0.53490176  0.28316922     0.15100
H128        H  0.12107864  0.51921338  0.39830320     0.14900
C129        C  0.32068606  0.47114655  0.17825836     0.86700
C130        C  0.29047894  0.46951275  0.18185802    -0.53600
C131        C  0.27910735  0.45410587  0.14325945     0.09600
C132        C  0.29922096  0.44001070  0.10556622     0.20600
C133        C  0.32981622  0.43893861  0.17994162    -0.54300
C134        C  0.31822325  0.42265489  0.14150133     0.09700
C135        C  0.32752500  0.48036340  0.12316815    -0.53800
C136        C  0.31589703  0.46514907  0.08532116     0.10300
H137        H  0.27902002  0.48033498  0.21245148     0.14800
H138        H  0.29038414  0.42721076  0.07374390     0.00500
H139        H  0.34298199  0.42952616  0.20878667     0.15100
H140        H  0.33873544  0.49977979  0.11447356     0.14900
C141        C  0.12288282  0.46502376  0.17798041     0.86700
C142        C  0.11396887  0.43448319  0.16503592    -0.53600
C143        C  0.12696011  0.42223177  0.12325218     0.09600
C144        C  0.14700393  0.44269314  0.09608436     0.20600
C145        C  0.15320434  0.46239203  0.18227941    -0.54300
C146        C  0.16575226  0.45075958  0.13989549     0.09700
C147        C  0.11928689  0.48265115  0.12806608    -0.53800
C148        C  0.13199298  0.47189290  0.08494379     0.10300
H149        H  0.10075562  0.42242873  0.19036210     0.14800
H150        H  0.15699063  0.43302651  0.06126854     0.00500
H151        H  0.16419609  0.47061744  0.21510647     0.15100
H152        H  0.11193410  0.50483938  0.12882880     0.14900
C153        C  0.38818841  0.05750247  0.46287914     0.86700
C154        C  0.41842742  0.05998654  0.45746770    -0.53600
C155        C  0.42698292  0.07088453  0.41109767     0.09600
C156        C  0.40459953  0.07820721  0.37326947     0.20600
C157        C  0.37707443  0.08783949  0.45074709    -0.54300
C158        C  0.38591466  0.09878765  0.40409296     0.09700
C159        C  0.38140404  0.03900538  0.41576344    -0.53800
C160        C  0.38996006  0.04918710  0.36869792     0.10300
H161        H  0.43232669  0.05140316  0.48590917     0.14800
H162        H  0.41115473  0.08763237  0.33539395     0.00500
H163        H  0.36511649  0.10037995  0.47828579     0.15100
H164        H  0.37540565  0.01668247  0.42027893     0.14900
C165        C  0.08249057  0.03897617  0.38608892     0.86700
C166        C  0.09063176  0.07093176  0.39305985    -0.53600
C167        C  0.07609134  0.09010454  0.36294414     0.09600
C168        C  0.05521148  0.07555826  0.32851842     0.20600
C169        C  0.05271512  0.03986056  0.39787301    -0.54300
C170        C  0.03830727  0.05866027  0.36770163     0.09700
C171        C  0.08537463  0.03399327  0.32784327    -0.53800
C172        C  0.07054134  0.05199069  0.29772648     0.10300
H173        H  0.10529882  0.07834659  0.41993239     0.14800
H174        H  0.04392322  0.09070187  0.30287020     0.00500
H175        H  0.04395225  0.02678587  0.42870095     0.15100
H176        H  0.09655445  0.01568048  0.31156606     0.14900
C177        C  0.40696363  0.96253497  0.21132763     0.86700
C178        C  0.39289063  0.93358868  0.20370196    -0.53600
C179        C  0.39370167  0.92404728  0.15264091     0.09600
C180        C  0.40779474  0.94499616  0.11418656     0.20600
C181        C  0.43466293  0.95605358  0.18899920    -0.54300
C182        C  0.43516671  0.94773439  0.13807731     0.09700
C183        C  0.39346383  0.98311010  0.17343123    -0.53800
C184        C  0.39440855  0.97499299  0.12312030     0.10300
H185        H  0.38643101  0.92001068  0.23603287     0.14800
H186        H  0.40817757  0.93783749  0.07273227     0.00500
H187        H  0.45251389  0.95677697  0.21187831     0.15100
H188        H  0.38536104  0.00425076  0.18515428     0.14900
C189        C  0.08522933  0.95969200  0.03930993     0.86700
C190        C  0.09793578  0.93345669  0.06655247    -0.53600
C191        C  0.08525037  0.92510929  0.11137772     0.09600
C192        C  0.06167392  0.94527923  0.12673183     0.20600
C193        C  0.05576725  0.95205116  0.03327871    -0.54300
C194        C  0.04336282  0.94474073  0.07907764     0.09700
C195        C  0.08385850  0.98376637  0.08003443    -0.53800
C196        C  0.07236657  0.97650032  0.12604909     0.10300
H197        H  0.11340326  0.92035624  0.04805255     0.14800
H198        H  0.05213201  0.93931970  0.16442372     0.00500
H199        H  0.04507804  0.95398700  0.99688866     0.15100
H200        H  0.08970511  0.00590437  0.07202120     0.14900
In201      In  0.32594146  0.33422958  0.12911490     1.36900
C202        C  0.30985518  0.32391940  0.22728271     0.77800
O203        O  0.33886466  0.28834242  0.12998769    -0.60700
O204        O  0.36893286  0.31992300  0.12477942    -0.51600
C205        C  0.30936851  0.32556169  0.03117058     0.70400
O206        O  0.29673054  0.31704063  0.07121851    -0.46400
C207        C  0.32173808  0.39110326  0.13608423     0.75100
O208        O  0.29667038  0.31635815  0.18792763    -0.58300
O209        O  0.34375109  0.37798189  0.14058134    -0.48400
O210        O  0.33050642  0.33739442  0.21626607    -0.54700
C211        C  0.36308132  0.29330771  0.12745987     0.85300
O212        O  0.32971964  0.33974318  0.04127498    -0.56600
O213        O  0.30247000  0.37518199  0.12628710    -0.59900
In214      In  0.29333307  0.29775693  0.37988592     1.36900
C215        C  0.30280751  0.31620632  0.28168801     0.77800
O216        O  0.33351791  0.27810924  0.38030164    -0.60700
O217        O  0.30145264  0.24925470  0.38075540    -0.51600
C218        C  0.30211502  0.31762807  0.47711653     0.70400
O219        O  0.31070329  0.33029517  0.43652749    -0.46400
C220        C  0.24182356  0.29765964  0.37685340     0.75100
O221        O  0.31192470  0.32878254  0.32131837    -0.58300
O222        O  0.25574207  0.27464149  0.37824513    -0.48400
O223        O  0.28816567  0.29528931  0.29241445    -0.54700
C224        C  0.32602161  0.25224364  0.38051986     0.85300
O225        O  0.28796124  0.29617259  0.46774372    -0.56600
O226        O  0.25427986  0.32119029  0.37833200    -0.59900
In227      In  0.12884773  0.33250286  0.11873132     1.36900
C228        C  0.14580509  0.32280184  0.21702248     0.77800
O229        O  0.14816016  0.37569211  0.10880735    -0.60700
O230        O  0.10693127  0.37521634  0.12494473    -0.51600
C231        C  0.14460248  0.32159479  0.02039480     0.70400
O232        O  0.15877348  0.31534638  0.05962221    -0.46400
C233        C  0.09448475  0.29006692  0.11984535     0.75100
O234        O  0.15957354  0.31619420  0.17700576    -0.58300
O235        O  0.08694103  0.31647368  0.11870875    -0.48400
O236        O  0.12450054  0.33598358  0.20670500    -0.54700
C237        C  0.12720877  0.39025978  0.11729943     0.85300
O238        O  0.12320506  0.33466336  0.03143984    -0.56600
O239        O  0.11900395  0.28593132  0.12041435    -0.59900
In240      In  0.16189918  0.29330146  0.36883044     1.36900
C241        C  0.13225386  0.24614883  0.36932816     0.77800
O242        O  0.16680379  0.29156765  0.45667141    -0.60700
O243        O  0.14188615  0.32478889  0.42594689    -0.51600
C244        C  0.21328314  0.29660770  0.37335326     0.70400
O245        O  0.20159707  0.27269573  0.37080961    -0.46400
C246        C  0.15277884  0.31397817  0.27119983     0.75100
O247        O  0.15698282  0.24414885  0.36613113    -0.58300
O248        O  0.14207283  0.32491647  0.31164363    -0.48400
O249        O  0.12319059  0.27174781  0.37186492    -0.54700
C250        C  0.15155418  0.31280668  0.46628847     0.85300
O251        O  0.19863657  0.31915208  0.37262873    -0.56600
O252        O  0.16876722  0.29344307  0.28083163    -0.59900
In253      In  0.07972971  0.17943630  0.37097783     1.36900
C254        C  0.06246146  0.18920020  0.46949522     0.77800
O255        O  0.05814796  0.13847928  0.36049422    -0.60700
O256        O  0.09928599  0.13493728  0.37584799    -0.51600
C257        C  0.06416984  0.19040665  0.27280513     0.70400
O258        O  0.04975307  0.19612803  0.31242080    -0.46400
C259        C  0.11461033  0.22135331  0.37010084     0.75100
O260        O  0.04975409  0.19759698  0.42958135    -0.58300
O261        O  0.12199306  0.19486813  0.36809824    -0.48400
O262        O  0.08291577  0.17426906  0.45899408    -0.54700
C263        C  0.07806163  0.12200411  0.36656114     0.85300
O264        O  0.08593652  0.17815349  0.28342051    -0.56600
O265        O  0.09012751  0.22563769  0.37284125    -0.59900
In266      In  0.04642331  0.21892045  0.12139930     1.36900
C267        C  0.05697413  0.19888393  0.21871805     0.77800
O268        O  0.08562554  0.23966419  0.12058446    -0.60700
O269        O  0.05208158  0.26776540  0.12065326    -0.51600
C270        C  0.05532278  0.19807159  0.02371278     0.70400
O271        O  0.06369540  0.18520817  0.06430479    -0.46400
C272        C  0.49470445  0.21928382  0.12555499     0.75100
O273        O  0.06825540  0.18872273  0.17823916    -0.58300
O274        O  0.00782665  0.24227870  0.12404159    -0.48400
O275        O  0.03976577  0.21815313  0.20924311    -0.54700
C276        C  0.07679682  0.26538937  0.12037619     0.85300
O277        O  0.04158843  0.22052096  0.03324937    -0.56600
O278        O  0.00808117  0.19578195  0.12439612    -0.59900
In279      In  0.38126653  0.18650588  0.38185657     1.36900
C280        C  0.39795677  0.19601317  0.47931587     0.77800
O281        O  0.36919158  0.23269681  0.38412352    -0.60700
O282        O  0.33881252  0.20159640  0.37733323    -0.51600
C283        C  0.39750198  0.19535696  0.28303864     0.70400
O284        O  0.41050994  0.20333315  0.32234868    -0.46400
C285        C  0.38313785  0.12974749  0.39131470     0.75100
O286        O  0.41177210  0.20206579  0.43925057    -0.58300
O287        O  0.36192118  0.14415782  0.39818580    -0.48400
O288        O  0.37639318  0.18438312  0.46935113    -0.54700
C289        C  0.34497092  0.22805191  0.38065331     0.85300
O290        O  0.37696783  0.18151178  0.29430028    -0.56600
O291        O  0.40264685  0.14419672  0.37604509    -0.59900
In292      In  0.41436199  0.22287169  0.13054617     1.36900
C293        C  0.40521552  0.20363727  0.03331995     0.77800
O294        O  0.37455336  0.24330184  0.12868641    -0.60700
O295        O  0.40678895  0.27183938  0.12915569    -0.51600
C296        C  0.40467803  0.20343125  0.22857686     0.70400
O297        O  0.39611985  0.19083758  0.18846040    -0.46400
C298        C  0.46601377  0.22018229  0.12829798     0.75100
O299        O  0.39470471  0.19252244  0.07360156    -0.58300
O300        O  0.45317778  0.24399851  0.12950034    -0.48400
O301        O  0.42127319  0.22328110  0.04298718    -0.54700
C302        C  0.38216908  0.26910788  0.12822976     0.85300
O303        O  0.41890954  0.22483245  0.21838093    -0.56600
O304        O  0.45236249  0.19749016  0.12918696    -0.59900
C305        C  0.47741160  0.92027901  0.13088297     0.23800
C306        C  0.46044348  0.94192122  0.11104003    -0.24300
C307        C  0.46998216  0.96185570  0.07414323     0.18700
C308        C  0.99681559  0.96176915  0.06093441     0.23700
C309        C  0.01435737  0.94142543  0.08417067    -0.24300
C310        C  0.00405117  0.91993379  0.11737975     0.18600
F311        F  0.01983053  0.89914675  0.13865401    -0.14200
F312        F  0.46844665  0.90062195  0.16628542    -0.16600
F313        F  0.00586241  0.98320923  0.02926600    -0.16600
F314        F  0.45384433  0.98307456  0.05472817    -0.14200
C315        C  0.08845713  0.96294299  0.44122414     0.23800
C316        C  0.09954647  0.96921497  0.98947745    -0.24300
C317        C  0.11674538  0.99295379  0.99109999     0.18700
C318        C  0.11350310  0.01586595  0.95537618     0.23700
C319        C  0.09493248  0.01337728  0.41533448    -0.24300
C320        C  0.08509327  0.98526789  0.40506841     0.18600
F321        F  0.06920851  0.98037292  0.36371688    -0.14200
F322        F  0.07710316  0.93693514  0.43278878    -0.16600
F323        F  0.12683549  0.04062201  0.96304462    -0.16600
F324        F  0.13307056  0.99626769  0.03230238    -0.14200
C325        C  0.04451590  0.02442538  0.23482773     0.23800
C326        C  0.06602042  0.04245316  0.24403884    -0.24300
C327        C  0.08837020  0.04011001  0.21187537     0.18700
C328        C  0.09073011  0.01770549  0.17587169     0.23700
C329        C  0.06973970  0.99870133  0.16769072    -0.24300
C330        C  0.04621299  0.00291018  0.19622237     0.18600
F331        F  0.02523266  0.98581373  0.18792657    -0.14200
F332        F  0.02309480  0.02551636  0.26694012    -0.16600
F333        F  0.11438581  0.01336562  0.15163642    -0.16600
F334        F  0.10958717  0.05672888  0.22120533    -0.14200
C335        C  0.38233152  0.98065320  0.29038196     0.23800
C336        C  0.40647569  0.97863025  0.26291404    -0.24300
C337        C  0.42424798  0.00195275  0.26835187     0.18700
C338        C  0.41804792  0.02583585  0.29917283     0.23700
C339        C  0.39412477  0.02752735  0.32651706    -0.24300
C340        C  0.37595862  0.00511629  0.32021245     0.18600
F341        F  0.35148971  0.00733003  0.34188488    -0.14200
F342        F  0.36348312  0.96061519  0.28366882    -0.16600
F343        F  0.43541860  0.04774311  0.29972556    -0.16600
F344        F  0.44648949  0.00406510  0.23889940    -0.14200
C345        C  0.40293025  0.02426995  0.08939723     0.23800
C346        C  0.38955493  0.99790931  0.08415608    -0.24300
C347        C  0.36819611  0.99670852  0.05030635     0.18700
C348        C  0.36285995  0.02015825  0.51680007     0.23700
C349        C  0.37998154  0.04405307  0.51503447    -0.24300
C350        C  0.39666294  0.04787011  0.55769942     0.18600
F351        F  0.41002260  0.07291550  0.56342346    -0.14200
F352        F  0.42254131  0.02693814  0.12469954    -0.16600
F353        F  0.34195771  0.01888121  0.48426071    -0.16600
F354        F  0.35265025  0.97307741  0.04981648    -0.14200
C355        C  0.46738845  0.04054040  0.39678911     0.23800
C356        C  0.45497329  0.06808920  0.39557606    -0.24300
C357        C  0.46943024  0.09235344  0.38039488     0.18700
C358        C  0.49649224  0.08942616  0.37020044     0.23700
C359        C  0.00923647  0.06194585  0.37345785    -0.24300
C360        C  0.49404984  0.03740055  0.38473908     0.18600
F361        F  0.00489750  0.01018592  0.38356015    -0.14200
F362        F  0.45348193  0.01647690  0.40885505    -0.16600
F363        F  0.01022819  0.11369942  0.35961408    -0.16600
F364        F  0.45760854  0.11902454  0.37760382    -0.14200
C365        C  0.23465686  0.47867651  0.14545750     0.23800
C366        C  0.25006495  0.45321501  0.13756752    -0.24300
C367        C  0.23740008  0.42713846  0.12588244     0.18700
C368        C  0.20984525  0.42630635  0.12457271     0.23700
C369        C  0.19470152  0.45152118  0.13477177    -0.24300
C370        C  0.20736366  0.47784002  0.14354651     0.18600
F371        F  0.19316631  0.50290678  0.15042522    -0.14200
F372        F  0.24590704  0.50459205  0.15506323    -0.16600
F373        F  0.19802040  0.40064466  0.11596683    -0.16600
F374        F  0.25152795  0.40213766  0.11867048    -0.14200
C375        C  0.13133878  0.49323712  0.30584366     0.23800
C376        C  0.12339269  0.52270907  0.29682830    -0.24300
C377        C  0.10388987  0.52817399  0.25922310     0.18700
C378        C  0.09697738  0.50582520  0.22517915     0.23700
C379        C  0.11069671  0.47877344  0.22707169    -0.24300
C380        C  0.12259279  0.47113081  0.27426815     0.18600
F381        F  0.13228109  0.44369863  0.28193429    -0.14200
F382        F  0.14942938  0.48594719  0.34275151    -0.16600
F383        F  0.07831614  0.51117620  0.18856069    -0.16600
F384        F  0.09262819  0.55486945  0.25299761    -0.14200
C385        C  0.16838555  0.51945182  0.48629929     0.23800
C386        C  0.14860925  0.53999393  0.47361300    -0.24300
C387        C  0.12387605  0.53801494  0.99809531     0.18700
C388        C  0.11796228  0.51400824  0.02892863     0.23700
C389        C  0.13756925  0.49308948  0.04192568    -0.24300
C390        C  0.16302797  0.49630224  0.52051429     0.18600
F391        F  0.18258938  0.47679498  0.53111333    -0.14200
F392        F  0.19208608  0.52019119  0.46141511    -0.16600
F393        F  0.09260416  0.51075539  0.04491364    -0.16600
F394        F  0.10407986  0.55684375  0.98476107    -0.14200
C395        C  0.34237616  0.50506885  0.47403643     0.23800
C396        C  0.32414037  0.52869807  0.47125157    -0.24300
C397        C  0.30245122  0.52879998  0.00603072     0.18700
C398        C  0.29639314  0.50403744  0.03444811     0.23700
C399        C  0.31394636  0.48014312  0.03532295    -0.24300
C400        C  0.33691947  0.48080103  0.00477986     0.18600
F401        F  0.35549906  0.45933140  0.00965232    -0.14200
F402        F  0.36643202  0.50619275  0.45068288    -0.16600
F403        F  0.27505421  0.50486611  0.06664999    -0.16600
F404        F  0.28628252  0.55257083  0.51055130    -0.14200
C405        C  0.32210207  0.54508048  0.24211918     0.23800
C406        C  0.34055620  0.54095610  0.28183194    -0.24300
C407        C  0.35793397  0.51644361  0.27833074     0.18700
C408        C  0.35184880  0.49294097  0.24630427     0.23700
C409        C  0.33004728  0.49517644  0.21338286    -0.24300
C410        C  0.31741591  0.52280899  0.20770247     0.18600
F411        F  0.29923941  0.52792598  0.16990411    -0.14200
F412        F  0.30678500  0.56941103  0.23823414    -0.16600
F413        F  0.36729692  0.46859359  0.24751209    -0.16600
F414        F  0.37935076  0.51412643  0.30956458    -0.14200
C415        C  0.22176084  0.59218072  0.35486882     0.23800
C416        C  0.20993191  0.56552819  0.34319757    -0.24300
C417        C  0.22620624  0.54241343  0.32497772     0.18700
C418        C  0.25349471  0.54534715  0.32228153     0.23700
C419        C  0.26523930  0.57107982  0.33882930    -0.24300
C420        C  0.24913502  0.59484369  0.35299382     0.18600
F421        F  0.25999391  0.61963538  0.37052601    -0.14200
F422        F  0.20708819  0.61555621  0.36995897    -0.16600
F423        F  0.26877494  0.52169096  0.31021553    -0.16600
F424        F  0.21616377  0.51599232  0.31442723    -0.14200
In425      In  0.33705103  0.68712709  0.88473784     1.36900
C426        C  0.32166126  0.69780862  0.98300949     0.77800
O427        O  0.31267877  0.64750438  0.88306457    -0.60700
O428        O  0.35419605  0.64164088  0.89245985    -0.51600
C429        C  0.32097275  0.69790058  0.78663419     0.70400
O430        O  0.30809433  0.70651604  0.82659500    -0.46400
C431        C  0.37352424  0.72752643  0.88320419     0.75100
O432        O  0.30787838  0.70528999  0.94390623    -0.58300
O433        O  0.37985095  0.70075182  0.88011925    -0.48400
O434        O  0.34257545  0.68388106  0.97181982    -0.54700
C435        C  0.33188524  0.62999971  0.88919501     0.85300
O436        O  0.34126755  0.68269292  0.79692583    -0.56600
O437        O  0.34919899  0.73290631  0.88667629    -0.59900
In438      In  0.30455970  0.72551350  0.63422161     1.36900
C439        C  0.31391305  0.70638108  0.73238831     0.77800
O440        O  0.34409782  0.74504194  0.63132888    -0.60700
O441        O  0.31121531  0.77423582  0.63408055    -0.51600
C442        C  0.31481747  0.70622879  0.53715317     0.70400
O443        O  0.32479204  0.69426909  0.57724911    -0.46400
C444        C  0.25295029  0.72265836  0.63004386     0.75100
O445        O  0.32201434  0.69279067  0.69220509    -0.58300
O446        O  0.26490725  0.74645718  0.63058568    -0.48400
O447        O  0.30027753  0.72886197  0.72232008    -0.54700
C448        C  0.33591738  0.77102592  0.63235017     0.85300
O449        O  0.29927637  0.72716180  0.54695437    -0.56600
O450        O  0.26741388  0.70002715  0.63293502    -0.59900
In451      In  0.14023330  0.68409706  0.87541197     1.36900
C452        C  0.15597346  0.69453974  0.77660334     0.77800
O453        O  0.16109581  0.64132120  0.88110179    -0.60700
O454        O  0.12029087  0.64113178  0.86295601    -0.51600
C455        C  0.15680274  0.69274910  0.97325790     0.70400
O456        O  0.17061313  0.69898260  0.93324746    -0.46400
C457        C  0.10558186  0.72757279  0.88218148     0.75100
O458        O  0.16989148  0.70069727  0.81578467    -0.58300
O459        O  0.09837475  0.70135187  0.88325287    -0.48400
O460        O  0.13474368  0.68224005  0.78799768    -0.54700
C461        C  0.14135366  0.62646741  0.86977521     0.85300
O462        O  0.13553713  0.68025879  0.96317692    -0.56600
O463        O  0.12996065  0.73103747  0.87705822    -0.59900
In464      In  0.17260231  0.72220159  0.62426206     1.35300
C465        C  0.16374185  0.70151832  0.52712568     0.77800
O466        O  0.13296874  0.74378986  0.62505641    -0.60700
O467        O  0.16598757  0.77108724  0.62741502    -0.51600
C468        C  0.16295192  0.70261304  0.72214109     0.70400
O469        O  0.15244056  0.69178514  0.68224106    -0.46400
C470        C  0.22432576  0.72182447  0.62646556     0.75100
O471        O  0.15502533  0.68938107  0.56808745    -0.58300
O472        O  0.21057408  0.74489994  0.62314521    -0.48400
O473        O  0.17766570  0.72322151  0.53596115    -0.54700
C474        C  0.14132438  0.76925573  0.62785498     0.85300
O475        O  0.17905481  0.72221436  0.71173707    -0.56600
O476        O  0.21160580  0.69844727  0.62704970    -0.59900
In477      In  0.08824755  0.83734928  0.63680316     1.36900
C478        C  0.07086064  0.82840504  0.53955001     0.77800
O479        O  0.06753616  0.88022474  0.64138329    -0.60700
O480        O  0.10869351  0.87961733  0.62422278    -0.51600
C481        C  0.07285344  0.82791365  0.73609446     0.70400
O482        O  0.05882338  0.82163077  0.69717362    -0.46400
C483        C  0.12321863  0.79425714  0.63166086     0.75100
O484        O  0.05768633  0.82127211  0.57988756    -0.58300
O485        O  0.13034068  0.82031877  0.63676607    -0.48400
O486        O  0.09174860  0.84151919  0.54918191    -0.54700
C487        C  0.08749947  0.89445786  0.62816927     0.85300
O488        O  0.09408480  0.84027564  0.72431239    -0.56600
O489        O  0.09876746  0.79075632  0.63026764    -0.59900
In490      In  0.05598319  0.79968524  0.88826496     1.36900
C491        C  0.08754528  0.75270755  0.88594161     0.77800
O492        O  0.04978781  0.79998230  0.80071044    -0.60700
O493        O  0.07625511  0.83042486  0.83069069    -0.51600
C494        C  0.50422651  0.80005974  0.88678682     0.70400
O495        O  0.01799588  0.77692409  0.88791347    -0.46400
C496        C  0.06398286  0.81997655  0.98564729     0.75100
O497        O  0.06289775  0.75083802  0.88803838    -0.58300
O498        O  0.07280977  0.83243207  0.94508052    -0.48400
O499        O  0.09584804  0.77826851  0.88644064    -0.54700
C500        C  0.06586375  0.81969059  0.79058083     0.85300
O501        O  0.01697683  0.82340933  0.88673607    -0.56600
O502        O  0.05032566  0.79816926  0.97629153    -0.59900
In503      In  0.39037520  0.83568364  0.63399424     1.36900
C504        C  0.40720013  0.82474655  0.73163297     0.77800
O505        O  0.41122035  0.87767523  0.62749560    -0.60700
O506        O  0.37049584  0.87901332  0.64916753    -0.51600
C507        C  0.40684220  0.82584464  0.53542740     0.70400
O508        O  0.42004102  0.81784522  0.57500416    -0.46400
C509        C  0.35442193  0.79497317  0.63242351     0.75100
O510        O  0.42089599  0.81814678  0.69148404    -0.58300
O511        O  0.34791228  0.82163892  0.62889063    -0.48400
O512        O  0.38577008  0.83771643  0.72166135    -0.54700
C513        C  0.39144790  0.89287944  0.64163815     0.85300
O514        O  0.38616243  0.84039529  0.54625196    -0.56600
O515        O  0.37870773  0.78979175  0.63643105    -0.59900
In516      In  0.42382227  0.79707661  0.88367061     1.36900
C517        C  0.39221063  0.75145029  0.88310344     0.77800
O518        O  0.42758821  0.79453726  0.97169748    -0.60700
O519        O  0.40575581  0.83020580  0.94068654    -0.51600
C520        C  0.47552883  0.79940372  0.88545545     0.70400
O521        O  0.46338362  0.77570974  0.88590372    -0.46400
C522        C  0.41446553  0.81651465  0.78578193     0.75100
O523        O  0.41691265  0.74822699  0.88147830    -0.58300
O524        O  0.40403876  0.82810623  0.82594785    -0.48400
O525        O  0.38417755  0.77747035  0.88501626    -0.54700
C526        C  0.41390966  0.81705660  0.98121878     0.85300
O527        O  0.46117905  0.82216050  0.88373525    -0.56600
O528        O  0.43047682  0.79605426  0.79578398    -0.59900
C529        C  0.32326093  0.54945907  0.92457051     0.86700
C530        C  0.33117182  0.58111765  0.93349885    -0.53600
C531        C  0.32813861  0.59832486  0.88996164     0.09600
C532        C  0.31743710  0.58253284  0.84196422     0.20600
C533        C  0.29521757  0.55122309  0.90321063    -0.54300
C534        C  0.29181461  0.56864474  0.86118255     0.09700
C535        C  0.33924605  0.53940663  0.87701867    -0.53800
C536        C  0.33649974  0.55606557  0.83291301     0.10300
H537        H  0.33768119  0.58930682  0.97087179     0.14800
H538        H  0.31504354  0.59761520  0.80838999     0.00500
H539        H  0.27895709  0.53885639  0.91908893     0.15100
H540        H  0.34647628  0.51725375  0.87465840     0.14900
C541        C  0.13659402  0.54585070  0.82929552     0.86700
C542        C  0.12874300  0.57861584  0.82984145    -0.53600
C543        C  0.14339868  0.59447711  0.86440005     0.09600
C544        C  0.16420582  0.57612863  0.89458772     0.20600
C545        C  0.16631841  0.54574883  0.81732532    -0.54300
C546        C  0.18096671  0.56163946  0.85079948     0.09700
C547        C  0.13353542  0.53700598  0.88586250    -0.53800
C548        C  0.14832367  0.55148165  0.91989227     0.10300
H549        H  0.11388181  0.58873315  0.80539352     0.14800
H550        H  0.17565692  0.58843740  0.92347221     0.00500
H551        H  0.17466121  0.53490177  0.78316942     0.15100
H552        H  0.12107867  0.51921342  0.89830317     0.14900
C553        C  0.32068603  0.47114649  0.67825841     0.86700
C554        C  0.29047886  0.46951271  0.68185804    -0.53600
C555        C  0.27910731  0.45410587  0.64325945     0.09600
C556        C  0.29922090  0.44001068  0.60556638     0.20600
C557        C  0.32981622  0.43893857  0.67994170    -0.54300
C558        C  0.31822329  0.42265488  0.64150132     0.09700
C559        C  0.32752501  0.48036342  0.62316814    -0.53800
C560        C  0.31589701  0.46514896  0.58532116     0.10300
H561        H  0.27901992  0.48033484  0.71245146     0.14800
H562        H  0.29038396  0.42721071  0.57374426     0.00500
H563        H  0.34298193  0.42952609  0.70878690     0.15100
H564        H  0.33873552  0.49977950  0.61447362     0.14900
C565        C  0.12288286  0.46502388  0.67798038     0.86700
C566        C  0.11396891  0.43448325  0.66503586    -0.53600
C567        C  0.12696021  0.42223182  0.62325221     0.09600
C568        C  0.14700391  0.44269319  0.59608426     0.20600
C569        C  0.15320437  0.46239211  0.68227931    -0.54300
C570        C  0.16575226  0.45075958  0.63989555     0.09700
C571        C  0.11928696  0.48265116  0.62806601    -0.53800
C572        C  0.13199288  0.47189292  0.58494362     0.10300
H573        H  0.10075592  0.42242870  0.69036215     0.14800
H574        H  0.15699040  0.43302642  0.56126851     0.00500
H575        H  0.16419631  0.47061753  0.71510657     0.15100
H576        H  0.11193380  0.50483941  0.62882864     0.14900
C577        C  0.38818838  0.05750245  0.96287917     0.86700
C578        C  0.41842740  0.05998651  0.95746770    -0.53600
C579        C  0.42698289  0.07088444  0.91109771     0.09600
C580        C  0.40459956  0.07820716  0.87326950     0.20600
C581        C  0.37707437  0.08783940  0.95074717    -0.54300
C582        C  0.38591473  0.09878764  0.90409317     0.09700
C583        C  0.38140401  0.03900539  0.91576347    -0.53800
C584        C  0.38996000  0.04918714  0.86869798     0.10300
H585        H  0.43232675  0.05140272  0.98590893     0.14800
H586        H  0.41115450  0.08763222  0.83539381     0.00500
H587        H  0.36511685  0.10038002  0.97828649     0.15100
H588        H  0.37540558  0.01668258  0.92027890     0.14900
C589        C  0.08249060  0.03897617  0.88608883     0.86700
C590        C  0.09063172  0.07093176  0.89305986    -0.53600
C591        C  0.07609136  0.09010452  0.86294423     0.09600
C592        C  0.05521154  0.07555822  0.82851836     0.20600
C593        C  0.05271517  0.03986058  0.89787293    -0.54300
C594        C  0.03830733  0.05866031  0.86770155     0.09700
C595        C  0.08537459  0.03399320  0.82784321    -0.53800
C596        C  0.07054137  0.05199062  0.79772639     0.10300
H597        H  0.10529906  0.07834656  0.91993210     0.14800
H598        H  0.04392332  0.09070187  0.80287020     0.00500
H599        H  0.04395232  0.02678615  0.92870089     0.15100
H600        H  0.09655478  0.01568047  0.81156590     0.14900
C601        C  0.40696367  0.96253501  0.71132767     0.86700
C602        C  0.39289056  0.93358863  0.70370206    -0.53600
C603        C  0.39370166  0.92404728  0.65264089     0.09600
C604        C  0.40779476  0.94499612  0.61418659     0.20600
C605        C  0.43466296  0.95605366  0.68899911    -0.54300
C606        C  0.43516677  0.94773442  0.63807735     0.09700
C607        C  0.39346385  0.98311010  0.67343128    -0.53800
C608        C  0.39440852  0.97499295  0.62312040     0.10300
H609        H  0.38643093  0.92001064  0.73603291     0.14800
H610        H  0.40817739  0.93783753  0.57273230     0.00500
H611        H  0.45251409  0.95677679  0.71187858     0.15100
H612        H  0.38536075  0.00425079  0.68515433     0.14900
C613        C  0.08522928  0.95969195  0.53930973     0.86700
C614        C  0.09793581  0.93345673  0.56655241    -0.53600
C615        C  0.08525045  0.92510928  0.61137765     0.09600
C616        C  0.06167398  0.94527921  0.62673173     0.20600
C617        C  0.05576719  0.95205102  0.53327857    -0.54300
C618        C  0.04336281  0.94474077  0.57907753     0.09700
C619        C  0.08385846  0.98376635  0.58003430    -0.53800
C620        C  0.07236664  0.97650030  0.62604905     0.10300
H621        H  0.11340325  0.92035617  0.54805209     0.14800
H622        H  0.05213213  0.93931968  0.66442364     0.00500
H623        H  0.04507777  0.95398713  0.49688850     0.15100
H624        H  0.08970470  0.00590441  0.57202074     0.14900
In625      In  0.32594147  0.33422958  0.62911493     1.36900
C626        C  0.30985519  0.32391925  0.72728261     0.77800
O627        O  0.33886470  0.28834238  0.62998771    -0.60700
O628        O  0.36893290  0.31992303  0.62477943    -0.51600
C629        C  0.30936850  0.32556170  0.53117054     0.70400
O630        O  0.29673052  0.31704070  0.57121843    -0.46400
C631        C  0.32173807  0.39110328  0.63608423     0.75100
O632        O  0.29667032  0.31635807  0.68792758    -0.58300
O633        O  0.34375106  0.37798191  0.64058140    -0.48400
O634        O  0.33050637  0.33739435  0.71626594    -0.54700
C635        C  0.36308136  0.29330772  0.62745987     0.85300
O636        O  0.32971962  0.33974309  0.54127504    -0.56600
O637        O  0.30246997  0.37518201  0.62628717    -0.59900
In638      In  0.29333306  0.29775696  0.87988594     1.36900
C639        C  0.30280753  0.31620628  0.78168795     0.77800
O640        O  0.33351794  0.27810925  0.88030169    -0.60700
O641        O  0.30145269  0.24925468  0.88075544    -0.51600
C642        C  0.30211505  0.31762800  0.97711653     0.70400
O643        O  0.31070329  0.33029527  0.93652754    -0.46400
C644        C  0.24182359  0.29765971  0.87685347     0.75100
O645        O  0.31192464  0.32878265  0.82131828    -0.58300
O646        O  0.25574210  0.27464157  0.87824519    -0.48400
O647        O  0.28816567  0.29528926  0.79241437    -0.54700
C648        C  0.32602164  0.25224364  0.88051992     0.85300
O649        O  0.28796118  0.29617251  0.96774377    -0.56600
O650        O  0.25427992  0.32119036  0.87833206    -0.59900
In651      In  0.12884779  0.33250286  0.61873138     1.36900
C652        C  0.14580512  0.32280184  0.71702253     0.77800
O653        O  0.14816026  0.37569210  0.60880735    -0.60700
O654        O  0.10693136  0.37521633  0.62494471    -0.51600
C655        C  0.14460257  0.32159488  0.52039479     0.70400
O656        O  0.15877353  0.31534637  0.55962220    -0.46400
C657        C  0.09448481  0.29006690  0.61984535     0.75100
O658        O  0.15957363  0.31619411  0.67700586    -0.58300
O659        O  0.08694108  0.31647363  0.61870878    -0.48400
O660        O  0.12450056  0.33598362  0.70670507    -0.54700
C661        C  0.12720887  0.39025977  0.61729945     0.85300
O662        O  0.12320510  0.33466335  0.53143990    -0.56600
O663        O  0.11900400  0.28593129  0.62041441    -0.59900
In664      In  0.16189921  0.29330148  0.86883049     1.36900
C665        C  0.13225400  0.24614882  0.86932822     0.77800
O666        O  0.16680381  0.29156776  0.95667141    -0.60700
O667        O  0.14188612  0.32478883  0.92594682    -0.51600
C668        C  0.21328311  0.29660775  0.87335333     0.70400
O669        O  0.20159700  0.27269575  0.87080965    -0.46400
C670        C  0.15277881  0.31397823  0.77119989     0.75100
O671        O  0.15698296  0.24414893  0.86613119    -0.58300
O672        O  0.14207279  0.32491641  0.81164375    -0.48400
O673        O  0.12319072  0.27174776  0.87186495    -0.54700
C674        C  0.15155419  0.31280673  0.96628844     0.85300
O675        O  0.19863657  0.31915216  0.87262879    -0.56600
O676        O  0.16876720  0.29344319  0.78083168    -0.59900
In677      In  0.07972978  0.17943630  0.87097783     1.36900
C678        C  0.06246153  0.18920020  0.96949522     0.77800
O679        O  0.05814807  0.13847924  0.86049418    -0.60700
O680        O  0.09928607  0.13493730  0.87584795    -0.51600
C681        C  0.06416994  0.19040670  0.77280524     0.70400
O682        O  0.04975306  0.19612788  0.81242092    -0.46400
C683        C  0.11461038  0.22135332  0.87010089     0.75100
O684        O  0.04975416  0.19759700  0.92958134    -0.58300
O685        O  0.12199309  0.19486814  0.86809828    -0.48400
O686        O  0.08291584  0.17426907  0.95899413    -0.54700
C687        C  0.07806169  0.12200408  0.86656136     0.85300
O688        O  0.08593664  0.17815348  0.78342053    -0.56600
O689        O  0.09012754  0.22563772  0.87284127    -0.59900
In690      In  0.04642335  0.21892048  0.62139933     1.36900
C691        C  0.05697410  0.19888386  0.71871808     0.77800
O692        O  0.08562570  0.23966423  0.62058458    -0.60700
O693        O  0.05208167  0.26776540  0.62065306    -0.51600
C694        C  0.05532262  0.19807148  0.52371284     0.70400
O695        O  0.06369534  0.18520819  0.56430486    -0.46400
C696        C  0.49470448  0.21928384  0.62555505     0.75100
O697        O  0.06825542  0.18872267  0.67823913    -0.58300
O698        O  0.00782667  0.24227872  0.62404164    -0.48400
O699        O  0.03976583  0.21815321  0.70924322    -0.54700
C700        C  0.07679692  0.26538938  0.62037606     0.85300
O701        O  0.04158847  0.22052098  0.53324947    -0.56600
O702        O  0.00808124  0.19578196  0.62439615    -0.59900
In703      In  0.38126658  0.18650588  0.88185657     1.36900
C704        C  0.39795688  0.19601311  0.97931583     0.77800
O705        O  0.36919154  0.23269688  0.88412358    -0.60700
O706        O  0.33881256  0.20159642  0.87733332    -0.51600
C707        C  0.39750185  0.19535702  0.78303864     0.70400
O708        O  0.41051002  0.20333302  0.82234856    -0.46400
C709        C  0.38313790  0.12974752  0.89131471     0.75100
O710        O  0.41177215  0.20206585  0.93925044    -0.58300
O711        O  0.36192124  0.14415793  0.89818570    -0.48400
O712        O  0.37639330  0.18438303  0.96935122    -0.54700
C713        C  0.34497091  0.22805194  0.88065339     0.85300
O714        O  0.37696773  0.18151174  0.79430027    -0.56600
O715        O  0.40264693  0.14419669  0.87604508    -0.59900
In716      In  0.41436205  0.22287161  0.63054619     1.36900
C717        C  0.40521555  0.20363719  0.53331999     0.77800
O718        O  0.37455342  0.24330190  0.62868656    -0.60700
O719        O  0.40678900  0.27183934  0.62915550    -0.51600
C720        C  0.40467803  0.20343118  0.72857698     0.70400
O721        O  0.39611987  0.19083746  0.68846053    -0.46400
C722        C  0.46601383  0.22018224  0.62829804     0.75100
O723        O  0.39470480  0.19252229  0.57360159    -0.58300
O724        O  0.45317788  0.24399851  0.62950041    -0.48400
O725        O  0.42127311  0.22328116  0.54298721    -0.54700
C726        C  0.38216914  0.26910791  0.62822964     0.85300
O727        O  0.41890946  0.22483247  0.71838111    -0.56600
O728        O  0.45236259  0.19749002  0.62918701    -0.59900
C729        C  0.47741164  0.92027903  0.63088307     0.23800
C730        C  0.46044349  0.94192119  0.61103997    -0.24300
C731        C  0.46998214  0.96185570  0.57414314     0.18700
C732        C  0.99681561  0.96176920  0.56093448     0.23700
C733        C  0.01435739  0.94142543  0.58417063    -0.24300
C734        C  0.00405121  0.91993382  0.61737984     0.18600
F735        F  0.01983058  0.89914676  0.63865411    -0.14200
F736        F  0.46844666  0.90062194  0.66628551    -0.16600
F737        F  0.00586244  0.98320926  0.52926594    -0.16600
F738        F  0.45384437  0.98307454  0.55472801    -0.14200
C739        C  0.08845716  0.96294299  0.94122423     0.23800
C740        C  0.09954649  0.96921497  0.48947732    -0.24300
C741        C  0.11674542  0.99295381  0.49109995     0.18700
C742        C  0.11350315  0.01586595  0.45537619     0.23700
C743        C  0.09493239  0.01337731  0.91533456    -0.24300
C744        C  0.08509328  0.98526790  0.90506846     0.18600
F745        F  0.06920855  0.98037293  0.86371691    -0.14200
F746        F  0.07710322  0.93693516  0.93278878    -0.16600
F747        F  0.12683553  0.04062201  0.46304448    -0.16600
F748        F  0.13307056  0.99626767  0.53230234    -0.14200
C749        C  0.04451596  0.02442536  0.73482776     0.23800
C750        C  0.06602039  0.04245322  0.74403879    -0.24300
C751        C  0.08837018  0.04011001  0.71187540     0.18700
C752        C  0.09073014  0.01770555  0.67587163     0.23700
C753        C  0.06973974  0.99870144  0.66769052    -0.24300
C754        C  0.04621304  0.00291027  0.69622219     0.18600
F755        F  0.02523271  0.98581378  0.68792640    -0.14200
F756        F  0.02309480  0.02551639  0.76693993    -0.16600
F757        F  0.11438580  0.01336570  0.65163616    -0.16600
F758        F  0.10958715  0.05672885  0.72120533    -0.14200
C759        C  0.38233152  0.98065317  0.79038197     0.23800
C760        C  0.40647570  0.97863023  0.76291407    -0.24300
C761        C  0.42424792  0.00195275  0.76835183     0.18700
C762        C  0.41804787  0.02583584  0.79917285     0.23700
C763        C  0.39412467  0.02752736  0.82651708    -0.24300
C764        C  0.37595855  0.00511628  0.82021244     0.18600
F765        F  0.35148965  0.00733005  0.84188487    -0.14200
F766        F  0.36348311  0.96061517  0.78366886    -0.16600
F767        F  0.43541853  0.04774319  0.79972533    -0.16600
F768        F  0.44648942  0.00406508  0.73889937    -0.14200
C769        C  0.40293023  0.02426990  0.58939708     0.23800
C770        C  0.38955486  0.99790927  0.58415601    -0.24300
C771        C  0.36819603  0.99670854  0.55030625     0.18700
C772        C  0.36286004  0.02015821  0.01680009     0.23700
C773        C  0.37998154  0.04405308  0.01503449    -0.24300
C774        C  0.39666297  0.04787014  0.05769947     0.18600
F775        F  0.41002268  0.07291553  0.06342340    -0.14200
F776        F  0.42254139  0.02693802  0.62469919    -0.16600
F777        F  0.34195776  0.01888117  0.98426085    -0.16600
F778        F  0.35265019  0.97307744  0.54981631    -0.14200
C779        C  0.46738839  0.04054039  0.89678914     0.23800
C780        C  0.45497317  0.06808913  0.89557610    -0.24300
C781        C  0.46943007  0.09235341  0.88039500     0.18700
C782        C  0.49649212  0.08942618  0.87020055     0.23700
C783        C  0.00923650  0.06194590  0.87345788    -0.24300
C784        C  0.49404978  0.03740055  0.88473900     0.18600
F785        F  0.00489747  0.01018589  0.88356016    -0.14200
F786        F  0.45348189  0.01647691  0.90885501    -0.16600
F787        F  0.01022818  0.11369941  0.85961419    -0.16600
F788        F  0.45760845  0.11902457  0.87760389    -0.14200
C789        C  0.23465693  0.47867648  0.64545756     0.23800
C790        C  0.25006498  0.45321497  0.63756753    -0.24300
C791        C  0.23740014  0.42713845  0.62588247     0.18700
C792        C  0.20984531  0.42630634  0.62457271     0.23700
C793        C  0.19470155  0.45152119  0.63477165    -0.24300
C794        C  0.20736372  0.47784002  0.64354651     0.18600
F795        F  0.19316636  0.50290681  0.65042527    -0.14200
F796        F  0.24590708  0.50459205  0.65506333    -0.16600
F797        F  0.19802043  0.40064466  0.61596686    -0.16600
F798        F  0.25152799  0.40213768  0.61867053    -0.14200
C799        C  0.13133871  0.49323710  0.80584364     0.23800
C800        C  0.12339270  0.52270910  0.79682847    -0.24300
C801        C  0.10388999  0.52817411  0.75922311     0.18700
C802        C  0.09697738  0.50582530  0.72517920     0.23700
C803        C  0.11069669  0.47877352  0.72707154    -0.24300
C804        C  0.12259282  0.47113082  0.77426786     0.18600
F805        F  0.13228104  0.44369859  0.78193420    -0.14200
F806        F  0.14942928  0.48594717  0.84275147    -0.16600
F807        F  0.07831619  0.51117623  0.68856056    -0.16600
F808        F  0.09262819  0.55486951  0.75299758    -0.14200
C809        C  0.16838553  0.51945184  0.98629933     0.23800
C810        C  0.14860923  0.53999397  0.97361305    -0.24300
C811        C  0.12387607  0.53801496  0.49809528     0.18700
C812        C  0.11796228  0.51400826  0.52892853     0.23700
C813        C  0.13756921  0.49308946  0.54192546    -0.24300
C814        C  0.16302800  0.49630227  0.02051443     0.18600
F815        F  0.18258949  0.47679504  0.03111342    -0.14200
F816        F  0.19208604  0.52019117  0.96141496    -0.16600
F817        F  0.09260418  0.51075544  0.54491359    -0.16600
F818        F  0.10407990  0.55684387  0.48476112    -0.14200
C819        C  0.34237621  0.50506890  0.97403642     0.23800
C820        C  0.32414040  0.52869810  0.97125159    -0.24300
C821        C  0.30245121  0.52879999  0.50603072     0.18700
C822        C  0.29639316  0.50403744  0.53444816     0.23700
C823        C  0.31394624  0.48014303  0.53532295    -0.24300
C824        C  0.33691941  0.48080106  0.50478012     0.18600
F825        F  0.35549899  0.45933140  0.50965227    -0.14200
F826        F  0.36643201  0.50619282  0.95068288    -0.16600
F827        F  0.27505425  0.50486610  0.56664985    -0.16600
F828        F  0.28628254  0.55257081  0.01055125    -0.14200
C829        C  0.32210203  0.54508051  0.74211915     0.23800
C830        C  0.34055620  0.54095614  0.78183184    -0.24300
C831        C  0.35793393  0.51644359  0.77833079     0.18700
C832        C  0.35184886  0.49294098  0.74630415     0.23700
C833        C  0.33004725  0.49517641  0.71338291    -0.24300
C834        C  0.31741587  0.52280897  0.70770250     0.18600
F835        F  0.29923933  0.52792592  0.66990419    -0.14200
F836        F  0.30678491  0.56941104  0.73823420    -0.16600
F837        F  0.36729704  0.46859363  0.74751190    -0.16600
F838        F  0.37935076  0.51412648  0.80956455    -0.14200
C839        C  0.22176085  0.59218079  0.85486888     0.23800
C840        C  0.20993193  0.56552822  0.84319766    -0.24300
C841        C  0.22620624  0.54241344  0.82497777     0.18700
C842        C  0.25349471  0.54534719  0.82228148     0.23700
C843        C  0.26523931  0.57107984  0.83882937    -0.24300
C844        C  0.24913503  0.59484372  0.85299394     0.18600
F845        F  0.25999395  0.61963541  0.87052605    -0.14200
F846        F  0.20708815  0.61555626  0.86995902    -0.16600
F847        F  0.26877499  0.52169106  0.81021529    -0.16600
F848        F  0.21616381  0.51599230  0.81442723    -0.14200
In849      In  0.83705104  0.68712707  0.38473781     1.36900
C850        C  0.82166132  0.69780865  0.48300954     0.77800
O851        O  0.81267883  0.64750432  0.38306458    -0.60700
O852        O  0.85419601  0.64164090  0.39245976    -0.51600
C853        C  0.82097282  0.69790059  0.28663411     0.70400
O854        O  0.80809435  0.70651601  0.32659491    -0.46400
C855        C  0.87352434  0.72752641  0.38320422     0.75100
O856        O  0.80787842  0.70528999  0.44390630    -0.58300
O857        O  0.87985096  0.70075181  0.38011954    -0.48400
O858        O  0.84257549  0.68388105  0.47181986    -0.54700
C859        C  0.83188527  0.62999967  0.38919506     0.85300
O860        O  0.84126760  0.68269288  0.29692575    -0.56600
O861        O  0.84919911  0.73290623  0.38667620    -0.59900
In862      In  0.80455966  0.72551348  0.13422160     1.36900
C863        C  0.81391306  0.70638103  0.23238827     0.77800
O864        O  0.84409773  0.74504195  0.13132883    -0.60700
O865        O  0.81121522  0.77423584  0.13408051    -0.51600
C866        C  0.81481739  0.70622878  0.03715323     0.70400
O867        O  0.82479198  0.69426905  0.07724920    -0.46400
C868        C  0.75295028  0.72265835  0.13004381     0.75100
O869        O  0.82201428  0.69279062  0.19220499    -0.58300
O870        O  0.76490725  0.74645718  0.13058564    -0.48400
O871        O  0.80027749  0.72886188  0.22232012    -0.54700
C872        C  0.83591731  0.77102593  0.13235012     0.85300
O873        O  0.79927627  0.72716180  0.04695431    -0.56600
O874        O  0.76741386  0.70002713  0.13293498    -0.59900
In875      In  0.64023331  0.68409701  0.37541196     1.36900
C876        C  0.65597343  0.69453973  0.27660337     0.77800
O877        O  0.66109579  0.64132112  0.38110191    -0.60700
O878        O  0.62029076  0.64113173  0.36295599    -0.51600
C879        C  0.65680275  0.69274920  0.47325788     0.70400
O880        O  0.67061314  0.69898250  0.43324741    -0.46400
C881        C  0.60558188  0.72757279  0.38218146     0.75100
O882        O  0.66989150  0.70069729  0.31578474    -0.58300
O883        O  0.59837480  0.70135188  0.38325278    -0.48400
O884        O  0.63474365  0.68223994  0.28799754    -0.54700
C885        C  0.64135363  0.62646739  0.36977501     0.85300
O886        O  0.63553712  0.68025897  0.46317697    -0.56600
O887        O  0.62996066  0.73103743  0.37705814    -0.59900
In888      In  0.67260232  0.72220165  0.12426205     1.35300
C889        C  0.66374177  0.70151843  0.02712573     0.77800
O890        O  0.63296875  0.74378977  0.12505634    -0.60700
O891        O  0.66598753  0.77108731  0.12741497    -0.51600
C892        C  0.66295194  0.70261305  0.22214111     0.70400
O893        O  0.65244060  0.69178522  0.18224096    -0.46400
C894        C  0.72432577  0.72182446  0.12646550     0.75100
O895        O  0.65502532  0.68938113  0.06808758    -0.58300
O896        O  0.71057419  0.74489999  0.12314518    -0.48400
O897        O  0.67766578  0.72322154  0.03596105    -0.54700
C898        C  0.64132434  0.76925568  0.12785494     0.85300
O899        O  0.67905482  0.72221439  0.21173723    -0.56600
O900        O  0.71160573  0.69844731  0.12704964    -0.59900
In901      In  0.58824757  0.83734927  0.13680317     1.36900
C902        C  0.57086066  0.82840499  0.03954999     0.77800
O903        O  0.56753625  0.88022469  0.14138325    -0.60700
O904        O  0.60869349  0.87961731  0.12422294    -0.51600
C905        C  0.57285340  0.82791371  0.23609453     0.70400
O906        O  0.55882344  0.82163077  0.19717367    -0.46400
C907        C  0.62321861  0.79425710  0.13166081     0.75100
O908        O  0.55768637  0.82127212  0.07988756    -0.58300
O909        O  0.63034072  0.82031872  0.13676604    -0.48400
O910        O  0.59174859  0.84151919  0.04918187    -0.54700
C911        C  0.58749947  0.89445785  0.12816918     0.85300
O912        O  0.59408467  0.84027577  0.22431232    -0.56600
O913        O  0.59876743  0.79075632  0.13026763    -0.59900
In914      In  0.55598317  0.79968525  0.38826500     1.36900
C915        C  0.58754530  0.75270755  0.38594174     0.77800
O916        O  0.54978782  0.79998226  0.30071034    -0.60700
O917        O  0.57625496  0.83042501  0.33069089    -0.51600
C918        C  0.00422652  0.80005973  0.38678660     0.70400
O919        O  0.51799589  0.77692405  0.38791353    -0.46400
C920        C  0.56398283  0.81997667  0.48564735     0.75100
O921        O  0.56289776  0.75083798  0.38803859    -0.58300
O922        O  0.57280973  0.83243209  0.44508049    -0.48400
O923        O  0.59584808  0.77826853  0.38644049    -0.54700
C924        C  0.56586372  0.81969064  0.29058092     0.85300
O925        O  0.51697681  0.82340929  0.38673613    -0.56600
O926        O  0.55032566  0.79816938  0.47629160    -0.59900
In927      In  0.89037523  0.83568365  0.13399426     1.36900
C928        C  0.90720018  0.82474654  0.23163307     0.77800
O929        O  0.91122037  0.87767528  0.12749587    -0.60700
O930        O  0.87049576  0.87901322  0.14916742    -0.51600
C931        C  0.90684216  0.82584473  0.03542736     0.70400
O932        O  0.92004106  0.81784532  0.07500403    -0.46400
C933        C  0.85442197  0.79497310  0.13242346     0.75100
O934        O  0.92089609  0.81814664  0.19148423    -0.58300
O935        O  0.84791230  0.82163885  0.12889060    -0.48400
O936        O  0.88577012  0.83771643  0.22166139    -0.54700
C937        C  0.89144786  0.89287940  0.14163833     0.85300
O938        O  0.88616242  0.84039539  0.04625200    -0.56600
O939        O  0.87870781  0.78979167  0.13643101    -0.59900
In940      In  0.92382234  0.79707658  0.38367061     1.36900
C941        C  0.89221073  0.75145027  0.38310372     0.77800
O942        O  0.92758834  0.79453721  0.47169747    -0.60700
O943        O  0.90575594  0.83020575  0.44068661    -0.51600
C944        C  0.97552887  0.79940366  0.38545549     0.70400
O945        O  0.96338364  0.77570968  0.38590366    -0.46400
C946        C  0.91446545  0.81651459  0.28578200     0.75100
O947        O  0.91691276  0.74822693  0.38147854    -0.58300
O948        O  0.90403875  0.82810623  0.32594793    -0.48400
O949        O  0.88417765  0.77747034  0.38501616    -0.54700
C950        C  0.91390975  0.81705650  0.48121882     0.85300
O951        O  0.96117916  0.82216044  0.38373522    -0.56600
O952        O  0.93047684  0.79605426  0.29578395    -0.59900
C953        C  0.82326097  0.54945908  0.42457063     0.86700
C954        C  0.83117183  0.58111768  0.43349897    -0.53600
C955        C  0.82813870  0.59832484  0.38996189     0.09600
C956        C  0.81743712  0.58253278  0.34196444     0.20600
C957        C  0.79521757  0.55122310  0.40321066    -0.54300
C958        C  0.79181457  0.56864471  0.36118266     0.09700
C959        C  0.83924604  0.53940658  0.37701870    -0.53800
C960        C  0.83649981  0.55606553  0.33291316     0.10300
H961        H  0.83768148  0.58930695  0.47087236     0.14800
H962        H  0.81504376  0.59761511  0.30839020     0.00500
H963        H  0.77895700  0.53885637  0.41908893     0.15100
H964        H  0.84647647  0.51725363  0.37465853     0.14900
C965        C  0.63659404  0.54585064  0.32929546     0.86700
C966        C  0.62874306  0.57861579  0.32984149    -0.53600
C967        C  0.64339869  0.59447705  0.36440007     0.09600
C968        C  0.66420577  0.57612859  0.39458780     0.20600
C969        C  0.66631841  0.54574883  0.31732531    -0.54300
C970        C  0.68096668  0.56163941  0.35079945     0.09700
C971        C  0.63353547  0.53700591  0.38586250    -0.53800
C972        C  0.64832363  0.55148162  0.41989225     0.10300
H973        H  0.61388187  0.58873310  0.30539370     0.14800
H974        H  0.67565671  0.58843738  0.42347233     0.00500
H975        H  0.67466134  0.53490176  0.28316933     0.15100
H976        H  0.62107868  0.51921337  0.39830330     0.14900
C977        C  0.82068606  0.47114654  0.17825841     0.86700
C978        C  0.79047894  0.46951273  0.18185817    -0.53600
C979        C  0.77910736  0.45410587  0.14325958     0.09600
C980        C  0.79922097  0.44001073  0.10556628     0.20600
C981        C  0.82981623  0.43893860  0.17994167    -0.54300
C982        C  0.81822327  0.42265487  0.14150135     0.09700
C983        C  0.82752501  0.48036341  0.12316818    -0.53800
C984        C  0.81589704  0.46514910  0.08532120     0.10300
H985        H  0.77902005  0.48033492  0.21245175     0.14800
H986        H  0.79038413  0.42721084  0.07374396     0.00500
H987        H  0.84298202  0.42952616  0.20878672     0.15100
H988        H  0.83873544  0.49977976  0.11447366     0.14900
C989        C  0.62288280  0.46502377  0.17798043     0.86700
C990        C  0.61396886  0.43448317  0.16503594    -0.53600
C991        C  0.62696011  0.42223177  0.12325220     0.09600
C992        C  0.64700391  0.44269317  0.09608436     0.20600
C993        C  0.65320432  0.46239206  0.18227937    -0.54300
C994        C  0.66575225  0.45075961  0.13989547     0.09700
C995        C  0.61928694  0.48265115  0.12806610    -0.53800
C996        C  0.63199294  0.47189293  0.08494377     0.10300
H997        H  0.60075560  0.42242871  0.19036215     0.14800
H998        H  0.65699059  0.43302653  0.06126856     0.00500
H999        H  0.66419606  0.47061747  0.21510643     0.15100
H1000       H  0.61193384  0.50483938  0.12882869     0.14900
C1001       C  0.88818845  0.05750247  0.46287908     0.86700
C1002       C  0.91842746  0.05998652  0.45746768    -0.53600
C1003       C  0.92698295  0.07088454  0.41109766     0.09600
C1004       C  0.90459954  0.07820725  0.37326945     0.20600
C1005       C  0.87707445  0.08783947  0.45074705    -0.54300
C1006       C  0.88591467  0.09878764  0.40409288     0.09700
C1007       C  0.88140401  0.03900544  0.41576338    -0.53800
C1008       C  0.88996011  0.04918713  0.36869791     0.10300
H1009       H  0.93232676  0.05140292  0.48590919     0.14800
H1010       H  0.91115461  0.08763246  0.33539385     0.00500
H1011       H  0.86511676  0.10037990  0.47828577     0.15100
H1012       H  0.87540595  0.01668254  0.42027892     0.14900
C1013       C  0.58249062  0.03897612  0.38608886     0.86700
C1014       C  0.59063178  0.07093177  0.39305982    -0.53600
C1015       C  0.57609136  0.09010453  0.36294413     0.09600
C1016       C  0.55521151  0.07555823  0.32851841     0.20600
C1017       C  0.55271516  0.03986056  0.39787299    -0.54300
C1018       C  0.53830730  0.05866026  0.36770161     0.09700
C1019       C  0.58537470  0.03399321  0.32784323    -0.53800
C1020       C  0.57054141  0.05199061  0.29772646     0.10300
H1021       H  0.60529883  0.07834661  0.41993239     0.14800
H1022       H  0.54392324  0.09070185  0.30287021     0.00500
H1023       H  0.54395230  0.02678590  0.42870101     0.15100
H1024       H  0.59655451  0.01568014  0.31156596     0.14900
C1025       C  0.90696361  0.96253500  0.21132764     0.86700
C1026       C  0.89289064  0.93358867  0.20370198    -0.53600
C1027       C  0.89370170  0.92404726  0.15264094     0.09600
C1028       C  0.90779473  0.94499615  0.11418657     0.20600
C1029       C  0.93466291  0.95605362  0.18899913    -0.54300
C1030       C  0.93516669  0.94773443  0.13807725     0.09700
C1031       C  0.89346383  0.98311009  0.17343120    -0.53800
C1032       C  0.89440846  0.97499296  0.12312030     0.10300
H1033       H  0.88643103  0.92001066  0.23603289     0.14800
H1034       H  0.90817758  0.93783748  0.07273230     0.00500
H1035       H  0.95251385  0.95677675  0.21187831     0.15100
H1036       H  0.88536067  0.00425070  0.18515434     0.14900
C1037       C  0.58522936  0.95969197  0.03930992     0.86700
C1038       C  0.59793580  0.93345668  0.06655256    -0.53600
C1039       C  0.58525041  0.92510930  0.11137780     0.09600
C1040       C  0.56167393  0.94527922  0.12673184     0.20600
C1041       C  0.55576728  0.95205111  0.03327867    -0.54300
C1042       C  0.54336282  0.94474081  0.07907764     0.09700
C1043       C  0.58385850  0.98376635  0.08003432    -0.53800
C1044       C  0.57236657  0.97650033  0.12604903     0.10300
H1045       H  0.61340328  0.92035623  0.04805269     0.14800
H1046       H  0.55213202  0.93931967  0.16442372     0.00500
H1047       H  0.54507803  0.95398731  0.99688865     0.15100
H1048       H  0.58970506  0.00590439  0.07202085     0.14900
In1049     In  0.82594149  0.33422960  0.12911488     1.36900
C1050       C  0.80985517  0.32391944  0.22728268     0.77800
O1051       O  0.83886468  0.28834243  0.12998770    -0.60700
O1052       O  0.86893288  0.31992300  0.12477942    -0.51600
C1053       C  0.80936853  0.32556170  0.03117058     0.70400
O1054       O  0.79673056  0.31704063  0.07121851    -0.46400
C1055       C  0.82173810  0.39110322  0.13608423     0.75100
O1056       O  0.79667038  0.31635816  0.18792766    -0.58300
O1057       O  0.84375113  0.37798185  0.14058133    -0.48400
O1058       O  0.83050641  0.33739444  0.21626598    -0.54700
C1059       C  0.86308134  0.29330771  0.12745983     0.85300
O1060       O  0.82971966  0.33974318  0.04127497    -0.56600
O1061       O  0.80247000  0.37518195  0.12628707    -0.59900
In1062     In  0.79333307  0.29775694  0.37988590     1.36900
C1063       C  0.80280752  0.31620626  0.28168791     0.77800
O1064       O  0.83351793  0.27810924  0.38030164    -0.60700
O1065       O  0.80145270  0.24925470  0.38075539    -0.51600
C1066       C  0.80211504  0.31762807  0.47711653     0.70400
O1067       O  0.81070330  0.33029517  0.43652748    -0.46400
C1068       C  0.74182356  0.29765964  0.37685341     0.75100
O1069       O  0.81192465  0.32878254  0.32131821    -0.58300
O1070       O  0.75574212  0.27464151  0.37824514    -0.48400
O1071       O  0.78816562  0.29528930  0.29241442    -0.54700
C1072       C  0.82602166  0.25224364  0.38051986     0.85300
O1073       O  0.78796125  0.29617259  0.46774372    -0.56600
O1074       O  0.75427983  0.32119029  0.37833199    -0.59900
In1075     In  0.62884774  0.33250286  0.11873131     1.36900
C1076       C  0.64580511  0.32280184  0.21702248     0.77800
O1077       O  0.64816020  0.37569209  0.10880731    -0.60700
O1078       O  0.60693131  0.37521637  0.12494468    -0.51600
C1079       C  0.64460254  0.32159481  0.02039480     0.70400
O1080       O  0.65877353  0.31534638  0.05962224    -0.46400
C1081       C  0.59448477  0.29006692  0.11984535     0.75100
O1082       O  0.65957356  0.31619420  0.17700575    -0.58300
O1083       O  0.58694104  0.31647368  0.11870875    -0.48400
O1084       O  0.62450056  0.33598358  0.20670500    -0.54700
C1085       C  0.62720882  0.39025978  0.11729944     0.85300
O1086       O  0.62320511  0.33466334  0.03143983    -0.56600
O1087       O  0.61900396  0.28593131  0.12041435    -0.59900
In1088     In  0.66189919  0.29330147  0.36883045     1.36900
C1089       C  0.63225388  0.24614883  0.36932816     0.77800
O1090       O  0.66680378  0.29156769  0.45667148    -0.60700
O1091       O  0.64188616  0.32478890  0.42594687    -0.51600
C1092       C  0.71328312  0.29660773  0.37335326     0.70400
O1093       O  0.70159705  0.27269576  0.37080961    -0.46400
C1094       C  0.65277886  0.31397817  0.27119983     0.75100
O1095       O  0.65698284  0.24414885  0.36613114    -0.58300
O1096       O  0.64207284  0.32491647  0.31164363    -0.48400
O1097       O  0.62319061  0.27174781  0.37186492    -0.54700
C1098       C  0.65155415  0.31280669  0.46628848     0.85300
O1099       O  0.69863653  0.31915212  0.37262872    -0.56600
O1100       O  0.66876723  0.29344307  0.28083163    -0.59900
In1101     In  0.57972973  0.17943630  0.37097784     1.36900
C1102       C  0.56246148  0.18920020  0.46949522     0.77800
O1103       O  0.55814797  0.13847928  0.36049422    -0.60700
O1104       O  0.59928601  0.13493728  0.37584799    -0.51600
C1105       C  0.56416985  0.19040668  0.27280522     0.70400
O1106       O  0.54975307  0.19612803  0.31242095    -0.46400
C1107       C  0.61461034  0.22135331  0.37010084     0.75100
O1108       O  0.54975410  0.19759698  0.42958135    -0.58300
O1109       O  0.62199308  0.19486813  0.36809824    -0.48400
O1110       O  0.58291579  0.17426906  0.45899408    -0.54700
C1111       C  0.57806164  0.12200411  0.36656113     0.85300
O1112       O  0.58593652  0.17815350  0.28342056    -0.56600
O1113       O  0.59012752  0.22563769  0.37284125    -0.59900
In1114     In  0.54642333  0.21892044  0.12139932     1.36900
C1115       C  0.55697414  0.19888395  0.21871809     0.77800
O1116       O  0.58562556  0.23966419  0.12058445    -0.60700
O1117       O  0.55208160  0.26776540  0.12065326    -0.51600
C1118       C  0.55532280  0.19807159  0.02371279     0.70400
O1119       O  0.56369542  0.18520816  0.06430479    -0.46400
C1120       C  0.99470440  0.21928384  0.12555499     0.75100
O1121       O  0.56825541  0.18872275  0.17823912    -0.58300
O1122       O  0.50782669  0.24227867  0.12404159    -0.48400
O1123       O  0.53976577  0.21815314  0.20924322    -0.54700
C1124       C  0.57679684  0.26538936  0.12037619     0.85300
O1125       O  0.54158845  0.22052096  0.03324938    -0.56600
O1126       O  0.50808122  0.19578191  0.12439612    -0.59900
In1127     In  0.88126654  0.18650589  0.38185657     1.36900
C1128       C  0.89795680  0.19601316  0.47931585     0.77800
O1129       O  0.86919157  0.23269681  0.38412352    -0.60700
O1130       O  0.83881251  0.20159640  0.37733323    -0.51600
C1131       C  0.89750199  0.19535696  0.28303864     0.70400
O1132       O  0.91050995  0.20333315  0.32234869    -0.46400
C1133       C  0.88313786  0.12974750  0.39131472     0.75100
O1134       O  0.91177212  0.20206580  0.43925056    -0.58300
O1135       O  0.86192119  0.14415783  0.39818580    -0.48400
O1136       O  0.87639320  0.18438312  0.46935112    -0.54700
C1137       C  0.84497092  0.22805190  0.38065331     0.85300
O1138       O  0.87696784  0.18151178  0.29430028    -0.56600
O1139       O  0.90264687  0.14419672  0.37604509    -0.59900
In1140     In  0.91436199  0.22287168  0.13054614     1.36900
C1141       C  0.90521554  0.20363724  0.03331994     0.77800
O1142       O  0.87455337  0.24330184  0.12868653    -0.60700
O1143       O  0.90678897  0.27183938  0.12915546    -0.51600
C1144       C  0.90467805  0.20343125  0.22857686     0.70400
O1145       O  0.89611986  0.19083758  0.18846040    -0.46400
C1146       C  0.96601375  0.22018229  0.12829798     0.75100
O1147       O  0.89470468  0.19252246  0.07360156    -0.58300
O1148       O  0.95317782  0.24399854  0.12950035    -0.48400
O1149       O  0.92127317  0.22328112  0.04298714    -0.54700
C1150       C  0.88216910  0.26910788  0.12822959     0.85300
O1151       O  0.91890955  0.22483246  0.21838092    -0.56600
O1152       O  0.95236245  0.19749015  0.12918695    -0.59900
C1153       C  0.97741159  0.92027901  0.13088300     0.23800
C1154       C  0.96044346  0.94192119  0.11103999    -0.24300
C1155       C  0.96998215  0.96185571  0.07414321     0.18700
C1156       C  0.49681560  0.96176912  0.06093445     0.23700
C1157       C  0.51435738  0.94142540  0.08417066    -0.24300
C1158       C  0.50405119  0.91993381  0.11737984     0.18600
F1159       F  0.51983051  0.89914673  0.13865405    -0.14200
F1160       F  0.96844664  0.90062191  0.16628542    -0.16600
F1161       F  0.50586242  0.98320920  0.02926603    -0.16600
F1162       F  0.95384432  0.98307458  0.05472816    -0.14200
C1163       C  0.58845712  0.96294299  0.44122426     0.23800
C1164       C  0.59954651  0.96921499  0.98947748    -0.24300
C1165       C  0.61674540  0.99295384  0.99109997     0.18700
C1166       C  0.61350311  0.01586597  0.95537612     0.23700
C1167       C  0.59493248  0.01337724  0.41533453    -0.24300
C1168       C  0.58509329  0.98526783  0.40506846     0.18600
F1169       F  0.56920852  0.98037292  0.36371689    -0.14200
F1170       F  0.57710319  0.93693517  0.43278878    -0.16600
F1171       F  0.62683550  0.04062203  0.96304458    -0.16600
F1172       F  0.63307055  0.99626780  0.03230241    -0.14200
C1173       C  0.54451592  0.02442538  0.23482773     0.23800
C1174       C  0.56602044  0.04245316  0.24403883    -0.24300
C1175       C  0.58837021  0.04011000  0.21187536     0.18700
C1176       C  0.59073012  0.01770549  0.17587168     0.23700
C1177       C  0.56973971  0.99870133  0.16769070    -0.24300
C1178       C  0.54621301  0.00291018  0.19622237     0.18600
F1179       F  0.52523268  0.98581373  0.18792658    -0.14200
F1180       F  0.52309481  0.02551636  0.26694012    -0.16600
F1181       F  0.61438583  0.01336562  0.15163641    -0.16600
F1182       F  0.60958718  0.05672888  0.22120533    -0.14200
C1183       C  0.88233150  0.98065319  0.29038202     0.23800
C1184       C  0.90647565  0.97863026  0.26291410    -0.24300
C1185       C  0.92424794  0.00195277  0.26835192     0.18700
C1186       C  0.91804784  0.02583590  0.29917280     0.23700
C1187       C  0.89412473  0.02752737  0.32651709    -0.24300
C1188       C  0.87595860  0.00511627  0.32021252     0.18600
F1189       F  0.85148970  0.00733001  0.34188488    -0.14200
F1190       F  0.86348312  0.96061518  0.28366882    -0.16600
F1191       F  0.93541845  0.04774324  0.29972520    -0.16600
F1192       F  0.94648945  0.00406515  0.23889929    -0.14200
C1193       C  0.90293028  0.02426991  0.08939721     0.23800
C1194       C  0.88955490  0.99790928  0.08415600    -0.24300
C1195       C  0.86819611  0.99670851  0.05030621     0.18700
C1196       C  0.86285996  0.02015821  0.51679998     0.23700
C1197       C  0.87998151  0.04405307  0.51503441    -0.24300
C1198       C  0.89666288  0.04787013  0.55769942     0.18600
F1199       F  0.91002259  0.07291548  0.56342344    -0.14200
F1200       F  0.92254137  0.02693803  0.12469950    -0.16600
F1201       F  0.84195769  0.01888122  0.48426064    -0.16600
F1202       F  0.85265028  0.97307736  0.04981621    -0.14200
C1203       C  0.96738838  0.04054035  0.39678913     0.23800
C1204       C  0.95497326  0.06808915  0.39557592    -0.24300
C1205       C  0.96943024  0.09235344  0.38039485     0.18700
C1206       C  0.99649226  0.08942617  0.37020045     0.23700
C1207       C  0.50923651  0.06194586  0.37345786    -0.24300
C1208       C  0.99404974  0.03740052  0.38473888     0.18600
F1209       F  0.50489755  0.01018589  0.38356046    -0.14200
F1210       F  0.95348184  0.01647686  0.40885495    -0.16600
F1211       F  0.51022818  0.11369938  0.35961411    -0.16600
F1212       F  0.95760851  0.11902459  0.37760384    -0.14200
C1213       C  0.73465687  0.47867649  0.14545774     0.23800
C1214       C  0.75006496  0.45321502  0.13756745    -0.24300
C1215       C  0.73740009  0.42713845  0.12588255     0.18700
C1216       C  0.70984526  0.42630636  0.12457272     0.23700
C1217       C  0.69470153  0.45152120  0.13477175    -0.24300
C1218       C  0.70736368  0.47784002  0.14354652     0.18600
F1219       F  0.69316632  0.50290679  0.15042522    -0.14200
F1220       F  0.74590704  0.50459202  0.15506354    -0.16600
F1221       F  0.69802042  0.40064467  0.11596682    -0.16600
F1222       F  0.75152797  0.40213767  0.11867049    -0.14200
C1223       C  0.63133880  0.49323713  0.30584367     0.23800
C1224       C  0.62339271  0.52270908  0.29682831    -0.24300
C1225       C  0.60388989  0.52817400  0.25922311     0.18700
C1226       C  0.59697738  0.50582521  0.22517918     0.23700
C1227       C  0.61069670  0.47877344  0.22707170    -0.24300
C1228       C  0.62259280  0.47113081  0.27426815     0.18600
F1229       F  0.63228111  0.44369863  0.28193429    -0.14200
F1230       F  0.64942940  0.48594719  0.34275151    -0.16600
F1231       F  0.57831614  0.51117620  0.18856073    -0.16600
F1232       F  0.59262821  0.55486945  0.25299761    -0.14200
C1233       C  0.66838557  0.51945186  0.48629933     0.23800
C1234       C  0.64860926  0.53999392  0.47361291    -0.24300
C1235       C  0.62387614  0.53801502  0.99809530     0.18700
C1236       C  0.61796232  0.51400834  0.02892856     0.23700
C1237       C  0.63756928  0.49308957  0.04192572    -0.24300
C1238       C  0.66302797  0.49630225  0.52051431     0.18600
F1239       F  0.68258939  0.47679497  0.53111333    -0.14200
F1240       F  0.69208609  0.52019118  0.46141514    -0.16600
F1241       F  0.59260421  0.51075553  0.04491374    -0.16600
F1242       F  0.60407990  0.55684375  0.98476106    -0.14200
C1243       C  0.84237615  0.50506883  0.47403642     0.23800
C1244       C  0.82414037  0.52869809  0.47125159    -0.24300
C1245       C  0.80245122  0.52879999  0.00603068     0.18700
C1246       C  0.79639317  0.50403745  0.03444814     0.23700
C1247       C  0.81394640  0.48014316  0.03532303    -0.24300
C1248       C  0.83691949  0.48080104  0.00477990     0.18600
F1249       F  0.85549907  0.45933140  0.00965232    -0.14200
F1250       F  0.86643198  0.50619273  0.45068296    -0.16600
F1251       F  0.77505422  0.50486611  0.06665000    -0.16600
F1252       F  0.78628252  0.55257086  0.51055132    -0.14200
C1253       C  0.82210207  0.54508050  0.24211916     0.23800
C1254       C  0.84055620  0.54095610  0.28183194    -0.24300
C1255       C  0.85793397  0.51644362  0.27833073     0.18700
C1256       C  0.85184880  0.49294098  0.24630425     0.23700
C1257       C  0.83004725  0.49517645  0.21338289    -0.24300
C1258       C  0.81741588  0.52280899  0.20770251     0.18600
F1259       F  0.79923934  0.52792595  0.16990426    -0.14200
F1260       F  0.80678501  0.56941105  0.23823415    -0.16600
F1261       F  0.86729693  0.46859361  0.24751209    -0.16600
F1262       F  0.87935077  0.51412643  0.30956458    -0.14200
C1263       C  0.72176082  0.59218069  0.35486894     0.23800
C1264       C  0.70993190  0.56552819  0.34319751    -0.24300
C1265       C  0.72620626  0.54241341  0.32497785     0.18700
C1266       C  0.75349472  0.54534717  0.32228156     0.23700
C1267       C  0.76523929  0.57107984  0.33882934    -0.24300
C1268       C  0.74913499  0.59484371  0.35299386     0.18600
F1269       F  0.75999391  0.61963541  0.37052602    -0.14200
F1270       F  0.70708816  0.61555619  0.36995893    -0.16600
F1271       F  0.76877495  0.52169097  0.31021553    -0.16600
F1272       F  0.71616379  0.51599233  0.31442724    -0.14200
In1273     In  0.83705104  0.68712708  0.88473785     1.36900
C1274       C  0.82166127  0.69780865  0.98300956     0.77800
O1275       O  0.81267881  0.64750441  0.88306456    -0.60700
O1276       O  0.85419607  0.64164083  0.89245986    -0.51600
C1277       C  0.82097276  0.69790058  0.78663419     0.70400
O1278       O  0.80809434  0.70651604  0.82659500    -0.46400
C1279       C  0.87352425  0.72752643  0.88320419     0.75100
O1280       O  0.80787839  0.70529001  0.94390629    -0.58300
O1281       O  0.87985096  0.70075182  0.88011925    -0.48400
O1282       O  0.84257544  0.68388109  0.97181987    -0.54700
C1283       C  0.83188527  0.62999970  0.88919494     0.85300
O1284       O  0.84126756  0.68269292  0.79692583    -0.56600
O1285       O  0.84919901  0.73290631  0.88667629    -0.59900
In1286     In  0.80455971  0.72551349  0.63422160     1.36900
C1287       C  0.81391306  0.70638108  0.73238831     0.77800
O1288       O  0.84409783  0.74504194  0.63132887    -0.60700
O1289       O  0.81121533  0.77423582  0.63408055    -0.51600
C1290       C  0.81481742  0.70622878  0.53715318     0.70400
O1291       O  0.82479200  0.69426901  0.57724910    -0.46400
C1292       C  0.75295030  0.72265836  0.63004387     0.75100
O1293       O  0.82201436  0.69279068  0.69220509    -0.58300
O1294       O  0.76490726  0.74645718  0.63058569    -0.48400
O1295       O  0.80027754  0.72886197  0.72232008    -0.54700
C1296       C  0.83591740  0.77102591  0.63235016     0.85300
O1297       O  0.79927638  0.72716189  0.54695433    -0.56600
O1298       O  0.76741389  0.70002715  0.63293504    -0.59900
In1299     In  0.64023332  0.68409706  0.87541197     1.36900
C1300       C  0.65597348  0.69453974  0.77660334     0.77800
O1301       O  0.66109583  0.64132120  0.88110179    -0.60700
O1302       O  0.62029088  0.64113178  0.86295601    -0.51600
C1303       C  0.65680276  0.69274910  0.97325790     0.70400
O1304       O  0.67061315  0.69898260  0.93324746    -0.46400
C1305       C  0.60558187  0.72757279  0.88218148     0.75100
O1306       O  0.66989150  0.70069727  0.81578467    -0.58300
O1307       O  0.59837476  0.70135187  0.88325287    -0.48400
O1308       O  0.63474370  0.68224005  0.78799768    -0.54700
C1309       C  0.64135368  0.62646741  0.86977521     0.85300
O1310       O  0.63553715  0.68025879  0.96317692    -0.56600
O1311       O  0.62996067  0.73103747  0.87705822    -0.59900
In1312     In  0.67260231  0.72220161  0.62426204     1.35300
C1313       C  0.66374185  0.70151840  0.52712566     0.77800
O1314       O  0.63296868  0.74378985  0.62505642    -0.60700
O1315       O  0.66598764  0.77108723  0.62741502    -0.51600
C1316       C  0.66295194  0.70261304  0.72214108     0.70400
O1317       O  0.65244058  0.69178513  0.68224105    -0.46400
C1318       C  0.72432577  0.72182447  0.62646556     0.75100
O1319       O  0.65502528  0.68938110  0.56808740    -0.58300
O1320       O  0.71057409  0.74489995  0.62314522    -0.48400
O1321       O  0.67766578  0.72322156  0.53596110    -0.54700
C1322       C  0.64132440  0.76925571  0.62785499     0.85300
O1323       O  0.67905483  0.72221436  0.71173707    -0.56600
O1324       O  0.71160580  0.69844728  0.62704970    -0.59900
In1325     In  0.58824755  0.83734928  0.63680321     1.36900
C1326       C  0.57086065  0.82840501  0.53955004     0.77800
O1327       O  0.56753616  0.88022471  0.64138331    -0.60700
O1328       O  0.60869352  0.87961734  0.62422280    -0.51600
C1329       C  0.57285344  0.82791363  0.73609453     0.70400
O1330       O  0.55882338  0.82163075  0.69717369    -0.46400
C1331       C  0.62321858  0.79425712  0.63166086     0.75100
O1332       O  0.55768634  0.82127210  0.57988762    -0.58300
O1333       O  0.63034065  0.82031874  0.63676607    -0.48400
O1334       O  0.59174859  0.84151917  0.54918193    -0.54700
C1335       C  0.58749947  0.89445786  0.62816935     0.85300
O1336       O  0.59408479  0.84027561  0.72431244    -0.56600
O1337       O  0.59876738  0.79075634  0.63026765    -0.59900
In1338     In  0.55598320  0.79968525  0.88826497     1.36900
C1339       C  0.58754529  0.75270755  0.88594161     0.77800
O1340       O  0.54978781  0.79998230  0.80071036    -0.60700
O1341       O  0.57625514  0.83042487  0.83069080    -0.51600
C1342       C  0.00422653  0.80005979  0.88678681     0.70400
O1343       O  0.51799593  0.77692408  0.88791349    -0.46400
C1344       C  0.56398286  0.81997654  0.98564735     0.75100
O1345       O  0.56289776  0.75083802  0.88803839    -0.58300
O1346       O  0.57280976  0.83243205  0.94508062    -0.48400
O1347       O  0.59584805  0.77826851  0.88644064    -0.54700
C1348       C  0.56586378  0.81969060  0.79058088     0.85300
O1349       O  0.51697677  0.82340929  0.88673607    -0.56600
O1350       O  0.55032568  0.79816925  0.97629145    -0.59900
In1351     In  0.89037521  0.83568363  0.63399421     1.36900
C1352       C  0.90720012  0.82474656  0.73163297     0.77800
O1353       O  0.91122037  0.87767524  0.62749561    -0.60700
O1354       O  0.87049585  0.87901330  0.64916752    -0.51600
C1355       C  0.90684215  0.82584462  0.53542740     0.70400
O1356       O  0.92004103  0.81784516  0.57500412    -0.46400
C1357       C  0.85442194  0.79497317  0.63242352     0.75100
O1358       O  0.92089601  0.81814678  0.69148407    -0.58300
O1359       O  0.84791229  0.82163892  0.62889064    -0.48400
O1360       O  0.88577008  0.83771643  0.72166130    -0.54700
C1361       C  0.89144789  0.89287943  0.64163814     0.85300
O1362       O  0.88616239  0.84039536  0.54625190    -0.56600
O1363       O  0.87870775  0.78979175  0.63643106    -0.59900
In1364     In  0.92382228  0.79707661  0.88367063     1.36900
C1365       C  0.89221064  0.75145029  0.88310344     0.77800
O1366       O  0.92758822  0.79453726  0.97169748    -0.60700
O1367       O  0.90575584  0.83020581  0.94068655    -0.51600
C1368       C  0.97552886  0.79940367  0.88545544     0.70400
O1369       O  0.96338365  0.77570968  0.88590371    -0.46400
C1370       C  0.91446547  0.81651464  0.78578193     0.75100
O1371       O  0.91691267  0.74822699  0.88147831    -0.58300
O1372       O  0.90403872  0.82810615  0.82594788    -0.48400
O1373       O  0.88417756  0.77747034  0.88501627    -0.54700
C1374       C  0.91390967  0.81705660  0.98121878     0.85300
O1375       O  0.96117909  0.82216043  0.88373524    -0.56600
O1376       O  0.93047683  0.79605435  0.79578403    -0.59900
C1377       C  0.82326093  0.54945907  0.92457039     0.86700
C1378       C  0.83117182  0.58111763  0.93349872    -0.53600
C1379       C  0.82813869  0.59832485  0.88996148     0.09600
C1380       C  0.81743716  0.58253284  0.84196419     0.20600
C1381       C  0.79521759  0.55122311  0.90321055    -0.54300
C1382       C  0.79181464  0.56864480  0.86118252     0.09700
C1383       C  0.83924608  0.53940664  0.87701858    -0.53800
C1384       C  0.83649978  0.55606560  0.83291291     0.10300
H1385       H  0.83768115  0.58930683  0.97087165     0.14800
H1386       H  0.81504369  0.59761527  0.80838978     0.00500
H1387       H  0.77895705  0.53885649  0.91908892     0.15100
H1388       H  0.84647631  0.51725377  0.87465835     0.14900
C1389       C  0.63659403  0.54585070  0.82929552     0.86700
C1390       C  0.62874301  0.57861584  0.82984145    -0.53600
C1391       C  0.64339870  0.59447711  0.86440005     0.09600
C1392       C  0.66420584  0.57612863  0.89458771     0.20600
C1393       C  0.66631843  0.54574882  0.81732530    -0.54300
C1394       C  0.68096673  0.56163944  0.85079949     0.09700
C1395       C  0.63353544  0.53700598  0.88586250    -0.53800
C1396       C  0.64832371  0.55148165  0.91989226     0.10300
H1397       H  0.61388183  0.58873315  0.80539352     0.14800
H1398       H  0.67565695  0.58843740  0.92347219     0.00500
H1399       H  0.67466122  0.53490176  0.78316941     0.15100
H1400       H  0.62107869  0.51921342  0.89830318     0.14900
C1401       C  0.82068602  0.47114649  0.67825842     0.86700
C1402       C  0.79047883  0.46951271  0.68185803    -0.53600
C1403       C  0.77910728  0.45410587  0.64325944     0.09600
C1404       C  0.79922089  0.44001067  0.60556638     0.20600
C1405       C  0.82981621  0.43893857  0.67994171    -0.54300
C1406       C  0.81822330  0.42265489  0.64150132     0.09700
C1407       C  0.82752498  0.48036343  0.62316812    -0.53800
C1408       C  0.81589699  0.46514896  0.58532115     0.10300
H1409       H  0.77901986  0.48033487  0.71245140     0.14800
H1410       H  0.79038396  0.42721068  0.57374428     0.00500
H1411       H  0.84298192  0.42952610  0.70878691     0.15100
H1412       H  0.83873546  0.49977951  0.61447358     0.14900
C1413       C  0.62288287  0.46502391  0.67798048     0.86700
C1414       C  0.61396893  0.43448325  0.66503595    -0.53600
C1415       C  0.62696014  0.42223182  0.62325216     0.09600
C1416       C  0.64700390  0.44269314  0.59608433     0.20600
C1417       C  0.65320437  0.46239214  0.68227939    -0.54300
C1418       C  0.66575227  0.45075960  0.63989561     0.09700
C1419       C  0.61928693  0.48265118  0.62806611    -0.53800
C1420       C  0.63199286  0.47189291  0.58494373     0.10300
H1421       H  0.60075594  0.42242879  0.69036222     0.14800
H1422       H  0.65699037  0.43302645  0.56126859     0.00500
H1423       H  0.66419630  0.47061750  0.71510673     0.15100
H1424       H  0.61193377  0.50483946  0.62882867     0.14900
C1425       C  0.88818844  0.05750246  0.96287919     0.86700
C1426       C  0.91842748  0.05998656  0.95746771    -0.53600
C1427       C  0.92698294  0.07088449  0.91109769     0.09600
C1428       C  0.90459958  0.07820720  0.87326950     0.20600
C1429       C  0.87707439  0.08783939  0.95074719    -0.54300
C1430       C  0.88591471  0.09878763  0.90409315     0.09700
C1431       C  0.88140399  0.03900539  0.91576347    -0.53800
C1432       C  0.88996007  0.04918715  0.86869800     0.10300
H1433       H  0.93232684  0.05140274  0.98590890     0.14800
H1434       H  0.91115453  0.08763227  0.83539380     0.00500
H1435       H  0.86511683  0.10037997  0.97828649     0.15100
H1436       H  0.87540588  0.01668257  0.92027894     0.14900
C1437       C  0.58249057  0.03897620  0.88608890     0.86700
C1438       C  0.59063171  0.07093176  0.89305988    -0.53600
C1439       C  0.57609131  0.09010454  0.86294431     0.09600
C1440       C  0.55521149  0.07555827  0.82851847     0.20600
C1441       C  0.55271513  0.03986061  0.89787300    -0.54300
C1442       C  0.53830729  0.05866035  0.86770162     0.09700
C1443       C  0.58537461  0.03399325  0.82784327    -0.53800
C1444       C  0.57054133  0.05199069  0.79772650     0.10300
H1445       H  0.60529907  0.07834655  0.91993213     0.14800
H1446       H  0.54392329  0.09070196  0.80287032     0.00500
H1447       H  0.54395229  0.02678615  0.92870094     0.15100
H1448       H  0.59655445  0.01568044  0.81156606     0.14900
C1449       C  0.90696356  0.96253499  0.71132762     0.86700
C1450       C  0.89289054  0.93358858  0.70370201    -0.53600
C1451       C  0.89370158  0.92404726  0.65264086     0.09600
C1452       C  0.90779470  0.94499611  0.61418654     0.20600
C1453       C  0.93466288  0.95605363  0.68899916    -0.54300
C1454       C  0.93516668  0.94773439  0.63807730     0.09700
C1455       C  0.89346377  0.98311010  0.67343122    -0.53800
C1456       C  0.89440848  0.97499295  0.62312035     0.10300
H1457       H  0.88643058  0.92001063  0.73603289     0.14800
H1458       H  0.90817737  0.93783750  0.57273225     0.00500
H1459       H  0.95251377  0.95677667  0.71187852     0.15100
H1460       H  0.88536072  0.00425082  0.68515427     0.14900
C1461       C  0.58522931  0.95969198  0.53930985     0.86700
C1462       C  0.59793580  0.93345673  0.56655252    -0.53600
C1463       C  0.58525044  0.92510930  0.61137783     0.09600
C1464       C  0.56167395  0.94527919  0.62673186     0.20600
C1465       C  0.55576724  0.95205105  0.53327871    -0.54300
C1466       C  0.54336281  0.94474077  0.57907763     0.09700
C1467       C  0.58385850  0.98376636  0.58003437    -0.53800
C1468       C  0.57236662  0.97650029  0.62604911     0.10300
H1469       H  0.61340330  0.92035635  0.54805258     0.14800
H1470       H  0.55213206  0.93931961  0.66442373     0.00500
H1471       H  0.54507785  0.95398715  0.49688864     0.15100
H1472       H  0.58970488  0.00590434  0.57202102     0.14900
In1473     In  0.82594148  0.33422959  0.62911493     1.36900
C1474       C  0.80985521  0.32391925  0.72728261     0.77800
O1475       O  0.83886468  0.28834239  0.62998771    -0.60700
O1476       O  0.86893289  0.31992303  0.62477943    -0.51600
C1477       C  0.80936851  0.32556170  0.53117054     0.70400
O1478       O  0.79673054  0.31704070  0.57121843    -0.46400
C1479       C  0.82173808  0.39110329  0.63608423     0.75100
O1480       O  0.79667033  0.31635807  0.68792758    -0.58300
O1481       O  0.84375108  0.37798191  0.64058140    -0.48400
O1482       O  0.83050639  0.33739435  0.71626594    -0.54700
C1483       C  0.86308135  0.29330773  0.62745987     0.85300
O1484       O  0.82971964  0.33974309  0.54127504    -0.56600
O1485       O  0.80246999  0.37518201  0.62628717    -0.59900
In1486     In  0.79333308  0.29775696  0.87988594     1.36900
C1487       C  0.80280755  0.31620628  0.78168795     0.77800
O1488       O  0.83351796  0.27810925  0.88030169    -0.60700
O1489       O  0.80145271  0.24925468  0.88075544    -0.51600
C1490       C  0.80211506  0.31762800  0.97711653     0.70400
O1491       O  0.81070331  0.33029527  0.93652753    -0.46400
C1492       C  0.74182361  0.29765971  0.87685347     0.75100
O1493       O  0.81192466  0.32878265  0.82131828    -0.58300
O1494       O  0.75574212  0.27464157  0.87824519    -0.48400
O1495       O  0.78816569  0.29528926  0.79241437    -0.54700
C1496       C  0.82602166  0.25224364  0.88051992     0.85300
O1497       O  0.78796119  0.29617251  0.96774377    -0.56600
O1498       O  0.75427994  0.32119036  0.87833206    -0.59900
In1499     In  0.62884771  0.33250286  0.61873140     1.36900
C1500       C  0.64580511  0.32280185  0.71702250     0.77800
O1501       O  0.64816013  0.37569204  0.60880741    -0.60700
O1502       O  0.60693132  0.37521639  0.62494469    -0.51600
C1503       C  0.64460250  0.32159487  0.52039478     0.70400
O1504       O  0.65877340  0.31534646  0.55962226    -0.46400
C1505       C  0.59448478  0.29006687  0.61984536     0.75100
O1506       O  0.65957356  0.31619412  0.67700576    -0.58300
O1507       O  0.58694099  0.31647359  0.61870880    -0.48400
O1508       O  0.62450053  0.33598362  0.70670512    -0.54700
C1509       C  0.62720880  0.39025979  0.61729948     0.85300
O1510       O  0.62320504  0.33466330  0.53143986    -0.56600
O1511       O  0.61900398  0.28593129  0.62041443    -0.59900
In1512     In  0.66189923  0.29330147  0.86883049     1.36900
C1513       C  0.63225399  0.24614881  0.86932822     0.77800
O1514       O  0.66680384  0.29156782  0.95667143    -0.60700
O1515       O  0.64188616  0.32478888  0.92594679    -0.51600
C1516       C  0.71328313  0.29660775  0.87335332     0.70400
O1517       O  0.70159702  0.27269575  0.87080965    -0.46400
C1518       C  0.65277883  0.31397824  0.77119988     0.75100
O1519       O  0.65698295  0.24414890  0.86613119    -0.58300
O1520       O  0.64207281  0.32491640  0.81164374    -0.48400
O1521       O  0.62319074  0.27174776  0.87186496    -0.54700
C1522       C  0.65155414  0.31280671  0.96628845     0.85300
O1523       O  0.69863659  0.31915216  0.87262878    -0.56600
O1524       O  0.66876722  0.29344320  0.78083167    -0.59900
In1525     In  0.57972978  0.17943632  0.87097786     1.36900
C1526       C  0.56246155  0.18920021  0.96949523     0.77800
O1527       O  0.55814806  0.13847927  0.86049435    -0.60700
O1528       O  0.59928596  0.13493731  0.87584801    -0.51600
C1529       C  0.56416993  0.19040672  0.77280517     0.70400
O1530       O  0.54975308  0.19612789  0.81242086    -0.46400
C1531       C  0.61461035  0.22135334  0.87010088     0.75100
O1532       O  0.54975417  0.19759701  0.92958136    -0.58300
O1533       O  0.62199315  0.19486815  0.86809827    -0.48400
O1534       O  0.58291586  0.17426907  0.95899414    -0.54700
C1535       C  0.57806165  0.12200408  0.86656123     0.85300
O1536       O  0.58593661  0.17815351  0.78342044    -0.56600
O1537       O  0.59012748  0.22563776  0.87284130    -0.59900
In1538     In  0.54642336  0.21892048  0.62139933     1.36900
C1539       C  0.55697405  0.19888385  0.71871812     0.77800
O1540       O  0.58562572  0.23966422  0.62058460    -0.60700
O1541       O  0.55208168  0.26776539  0.62065307    -0.51600
C1542       C  0.55532264  0.19807148  0.52371284     0.70400
O1543       O  0.56369536  0.18520818  0.56430486    -0.46400
C1544       C  0.99470445  0.21928385  0.62555494     0.75100
O1545       O  0.56825542  0.18872276  0.67823920    -0.58300
O1546       O  0.50782670  0.24227872  0.62404166    -0.48400
O1547       O  0.53976579  0.21815315  0.70924324    -0.54700
C1548       C  0.57679693  0.26538936  0.62037607     0.85300
O1549       O  0.54158848  0.22052097  0.53324947    -0.56600
O1550       O  0.50808128  0.19578196  0.62439617    -0.59900
In1551     In  0.88126657  0.18650589  0.88185654     1.36900
C1552       C  0.89795680  0.19601315  0.97931587     0.77800
O1553       O  0.86919156  0.23269688  0.88412357    -0.60700
O1554       O  0.83881257  0.20159643  0.87733329    -0.51600
C1555       C  0.89750187  0.19535702  0.78303865     0.70400
O1556       O  0.91051003  0.20333302  0.82234857    -0.46400
C1557       C  0.88313786  0.12974750  0.89131469     0.75100
O1558       O  0.91177207  0.20206577  0.93925049    -0.58300
O1559       O  0.86192125  0.14415795  0.89818564    -0.48400
O1560       O  0.87639325  0.18438307  0.96935120    -0.54700
C1561       C  0.84497093  0.22805194  0.88065338     0.85300
O1562       O  0.87696775  0.18151175  0.79430027    -0.56600
O1563       O  0.90264685  0.14419671  0.87604517    -0.59900
In1564     In  0.91436198  0.22287161  0.63054618     1.36900
C1565       C  0.90521555  0.20363717  0.53331998     0.77800
O1566       O  0.87455335  0.24330194  0.62868656    -0.60700
O1567       O  0.90678903  0.27183933  0.62915550    -0.51600
C1568       C  0.90467804  0.20343117  0.72857699     0.70400
O1569       O  0.89611983  0.19083745  0.68846059    -0.46400
C1570       C  0.96601379  0.22018224  0.62829819     0.75100
O1571       O  0.89470475  0.19252228  0.57360153    -0.58300
O1572       O  0.95317782  0.24399848  0.62950028    -0.48400
O1573       O  0.92127308  0.22328117  0.54298725    -0.54700
C1574       C  0.88216915  0.26910794  0.62822964     0.85300
O1575       O  0.91890944  0.22483247  0.71838107    -0.56600
O1576       O  0.95236254  0.19749006  0.62918688    -0.59900
C1577       C  0.97741161  0.92027905  0.63088311     0.23800
C1578       C  0.96044345  0.94192121  0.61104002    -0.24300
C1579       C  0.96998214  0.96185569  0.57414314     0.18700
C1580       C  0.49681558  0.96176921  0.56093448     0.23700
C1581       C  0.51435737  0.94142544  0.58417064    -0.24300
C1582       C  0.50405122  0.91993381  0.61737984     0.18600
F1583       F  0.51983059  0.89914675  0.63865413    -0.14200
F1584       F  0.96844666  0.90062193  0.66628554    -0.16600
F1585       F  0.50586245  0.98320925  0.52926597    -0.16600
F1586       F  0.95384434  0.98307455  0.55472802    -0.14200
C1587       C  0.58845719  0.96294300  0.94122425     0.23800
C1588       C  0.59954650  0.96921501  0.48947743    -0.24300
C1589       C  0.61674542  0.99295385  0.49110002     0.18700
C1590       C  0.61350316  0.01586596  0.45537622     0.23700
C1591       C  0.59493239  0.01337731  0.91533453    -0.24300
C1592       C  0.58509330  0.98526789  0.90506846     0.18600
F1593       F  0.56920856  0.98037292  0.86371692    -0.14200
F1594       F  0.57710324  0.93693517  0.93278880    -0.16600
F1595       F  0.62683556  0.04062202  0.46304449    -0.16600
F1596       F  0.63307058  0.99626768  0.53230237    -0.14200
C1597       C  0.54451595  0.02442540  0.73482780     0.23800
C1598       C  0.56602039  0.04245323  0.74403887    -0.24300
C1599       C  0.58837017  0.04011007  0.71187541     0.18700
C1600       C  0.59073016  0.01770551  0.67587184     0.23700
C1601       C  0.56973974  0.99870141  0.66769069    -0.24300
C1602       C  0.54621305  0.00291024  0.69622241     0.18600
F1603       F  0.52523273  0.98581375  0.68792668    -0.14200
F1604       F  0.52309482  0.02551639  0.76694000    -0.16600
F1605       F  0.61438583  0.01336566  0.65163642    -0.16600
F1606       F  0.60958715  0.05672884  0.72120540    -0.14200
C1607       C  0.88233152  0.98065317  0.79038199     0.23800
C1608       C  0.90647568  0.97863022  0.76291402    -0.24300
C1609       C  0.92424789  0.00195278  0.76835173     0.18700
C1610       C  0.91804787  0.02583585  0.79917287     0.23700
C1611       C  0.89412467  0.02752741  0.82651700    -0.24300
C1612       C  0.87595857  0.00511629  0.82021244     0.18600
F1613       F  0.85148968  0.00733005  0.84188490    -0.14200
F1614       F  0.86348311  0.96061518  0.78366889    -0.16600
F1615       F  0.93541853  0.04774321  0.79972527    -0.16600
F1616       F  0.94648944  0.00406505  0.73889933    -0.14200
C1617       C  0.90293021  0.02426992  0.58939709     0.23800
C1618       C  0.88955486  0.99790926  0.58415600    -0.24300
C1619       C  0.86819603  0.99670851  0.55030625     0.18700
C1620       C  0.86286005  0.02015822  0.01680005     0.23700
C1621       C  0.87998159  0.04405308  0.01503450    -0.24300
C1622       C  0.89666303  0.04787010  0.05769945     0.18600
F1623       F  0.91002271  0.07291547  0.06342347    -0.14200
F1624       F  0.92254132  0.02693806  0.62469937    -0.16600
F1625       F  0.84195779  0.01888120  0.98426079    -0.16600
F1626       F  0.85265019  0.97307741  0.54981623    -0.14200
C1627       C  0.96738839  0.04054040  0.89678906     0.23800
C1628       C  0.95497319  0.06808916  0.89557596    -0.24300
C1629       C  0.96943014  0.09235345  0.88039499     0.18700
C1630       C  0.99649219  0.08942619  0.87020055     0.23700
C1631       C  0.50923646  0.06194589  0.87345790    -0.24300
C1632       C  0.99404978  0.03740056  0.88473884     0.18600
F1633       F  0.50489747  0.01018589  0.88356018    -0.14200
F1634       F  0.95348186  0.01647688  0.90885465    -0.16600
F1635       F  0.51022812  0.11369943  0.85961414    -0.16600
F1636       F  0.95760848  0.11902460  0.87760389    -0.14200
C1637       C  0.73465688  0.47867648  0.64545757     0.23800
C1638       C  0.75006494  0.45321497  0.63756752    -0.24300
C1639       C  0.73740014  0.42713844  0.62588246     0.18700
C1640       C  0.70984533  0.42630632  0.62457270     0.23700
C1641       C  0.69470158  0.45152117  0.63477165    -0.24300
C1642       C  0.70736371  0.47784001  0.64354649     0.18600
F1643       F  0.69316633  0.50290679  0.65042526    -0.14200
F1644       F  0.74590703  0.50459206  0.65506335    -0.16600
F1645       F  0.69802041  0.40064466  0.61596686    -0.16600
F1646       F  0.75152799  0.40213769  0.61867053    -0.14200
C1647       C  0.63133874  0.49323712  0.80584368     0.23800
C1648       C  0.62339272  0.52270911  0.79682847    -0.24300
C1649       C  0.60389001  0.52817411  0.75922311     0.18700
C1650       C  0.59697740  0.50582529  0.72517924     0.23700
C1651       C  0.61069670  0.47877351  0.72707166    -0.24300
C1652       C  0.62259284  0.47113083  0.77426798     0.18600
F1653       F  0.63228102  0.44369860  0.78193437    -0.14200
F1654       F  0.64942931  0.48594719  0.84275150    -0.16600
F1655       F  0.57831621  0.51117622  0.68856057    -0.16600
F1656       F  0.59262820  0.55486950  0.75299758    -0.14200
C1657       C  0.66838559  0.51945182  0.98629934     0.23800
C1658       C  0.64860932  0.53999395  0.97361299    -0.24300
C1659       C  0.62387611  0.53801500  0.49809531     0.18700
C1660       C  0.61796229  0.51400827  0.52892853     0.23700
C1661       C  0.63756921  0.49308946  0.54192551    -0.24300
C1662       C  0.66302803  0.49630226  0.02051442     0.18600
F1663       F  0.68258950  0.47679501  0.03111344    -0.14200
F1664       F  0.69208608  0.52019118  0.96141507    -0.16600
F1665       F  0.59260418  0.51075543  0.54491360    -0.16600
F1666       F  0.60407990  0.55684386  0.48476115    -0.14200
C1667       C  0.84237622  0.50506891  0.97403641     0.23800
C1668       C  0.82414040  0.52869811  0.97125152    -0.24300
C1669       C  0.80245120  0.52880000  0.50603076     0.18700
C1670       C  0.79639315  0.50403741  0.53444814     0.23700
C1671       C  0.81394631  0.48014302  0.53532292    -0.24300
C1672       C  0.83691944  0.48080104  0.50478004     0.18600
F1673       F  0.85549898  0.45933137  0.50965228    -0.14200
F1674       F  0.86643202  0.50619282  0.95068287    -0.16600
F1675       F  0.77505421  0.50486613  0.56664991    -0.16600
F1676       F  0.78628255  0.55257081  0.01055123    -0.14200
C1677       C  0.82210203  0.54508050  0.74211911     0.23800
C1678       C  0.84055622  0.54095614  0.78183177    -0.24300
C1679       C  0.85793394  0.51644358  0.77833077     0.18700
C1680       C  0.85184887  0.49294096  0.74630422     0.23700
C1681       C  0.83004732  0.49517641  0.71338287    -0.24300
C1682       C  0.81741585  0.52280894  0.70770254     0.18600
F1683       F  0.79923933  0.52792592  0.66990417    -0.14200
F1684       F  0.80678492  0.56941103  0.73823415    -0.16600
F1685       F  0.86729703  0.46859364  0.74751187    -0.16600
F1686       F  0.87935076  0.51412647  0.80956451    -0.14200
C1687       C  0.72176086  0.59218077  0.85486889     0.23800
C1688       C  0.70993193  0.56552823  0.84319772    -0.24300
C1689       C  0.72620625  0.54241347  0.82497779     0.18700
C1690       C  0.75349473  0.54534718  0.82228147     0.23700
C1691       C  0.76523935  0.57107983  0.83882926    -0.24300
C1692       C  0.74913505  0.59484369  0.85299390     0.18600
F1693       F  0.75999396  0.61963538  0.87052603    -0.14200
F1694       F  0.70708817  0.61555623  0.86995900    -0.16600
F1695       F  0.76877501  0.52169103  0.81021527    -0.16600
F1696       F  0.71616384  0.51599233  0.81442726    -0.14200
loop_ 
_geom_bond_atom_site_label_1 
_geom_bond_atom_site_label_2 
_geom_bond_distance 
_geom_bond_site_symmetry_2 
_ccdc_geom_bond_type 
In1           O3   2.226       .  S
In1           O4   2.259       .  S
In1          O12   2.262       .  S
In1           O6   2.269       .  S
In1           O8   2.258       .  S
In1           O9   2.279       .  S
In1          O10   2.250       .  S
In1          O13   2.208       .  S
C2            O8   1.268       .  A
C2           O10   1.261       .  A
C2          C442   1.475       .  S
O3           C11   1.263       .  A
O4           C11   1.268       .  A
C5           O12   1.264       .  A
C5            O6   1.268       .  A
C5           C15   1.484       .  S
C7            O9   1.269       .  A
C7           O13   1.259       .  A
C7           C93   1.469       .  S
C11         C107   1.474       .  S
In14         O16   2.219       .  S
In14         O17   2.274       .  S
In14         O25   2.250       .  S
In14         O19   2.274       .  S
In14         O21   2.280       .  S
In14         O22   2.219       .  S
In14         O23   2.265       .  S
In14         O26   2.244       .  S
C15          O21   1.266       .  A
C15          O23   1.260       .  A
O16          C24   1.258       .  A
O17          C24   1.262       .  A
C18          O25   1.258       .  A
C18          O19   1.266       .  A
C18         C426   1.475   1_554  S
C20          O22   1.264       .  A
C20          O26   1.265       .  A
C20          C46   1.460       .  S
C24          C85   1.464       .  S
In27         O29   2.221       .  S
In27         O30   2.266       .  S
In27         O38   2.260       .  S
In27         O32   2.267       .  S
In27         O34   2.274       .  S
In27         O35   2.263       .  S
In27         O36   2.256       .  S
In27         O39   2.212       .  S
C28          O34   1.268       .  A
C28          O36   1.260       .  A
C28          C44   1.480       .  S
O29          C37   1.263       .  A
O30          C37   1.267       .  A
C31          O38   1.264       .  A
C31          O32   1.270       .  A
C31         C465   1.484       .  S
C33          O35   1.268       .  A
C33          O39   1.258       .  A
C33          C67   1.464       .  S
C37         C119   1.480       .  S
In40         O42   2.228       .  S
In40         O43   2.269       .  S
In40         O51   2.263       .  S
In40         O45   2.283       .  S
In40         O47   2.290       .  S
In40         O48   2.214       .  S
In40         O49   2.269       .  S
In40         O52   2.246       .  S
C41          O47   1.265       .  A
C41          O49   1.259       .  A
C41         C455   1.484   1_554  S
O42          C50   1.257       .  A
O43          C50   1.258       .  A
C44          O51   1.256       .  A
C44          O45   1.265       .  A
C46          O48   1.262       .  A
C46          O52   1.266       .  A
C50          C59   1.461       .  S
In53         O55   2.220       .  S
In53         O56   2.244       .  S
In53         O64   2.264       .  S
In53         O58   2.265       .  S
In53         O60   2.276       .  S
In53         O61   2.264       .  S
In53         O62   2.252       .  S
In53         O65   2.206       .  S
C54          O60   1.269       .  A
C54          O62   1.259       .  A
C54         C496   1.480   1_554  S
O55          C63   1.262       .  A
O56          C63   1.267       .  A
C57          O64   1.264       .  A
C57          O58   1.268       .  A
C57          C76   1.483       .  S
C59          O61   1.268       .  A
C59          O65   1.258       .  A
C63         C191   1.475       .  S
In66         O68   2.263       .  S
In66         O69   2.288       .  S
In66         O77   2.245       .  S
In66         O71   2.216       .  S
In66         O73   2.268       .  S
In66         O74   2.282       .  S
In66         O75   2.235       .  S
In66         O78   2.266       .  S
C67          O73   1.258       .  A
C67          O75   1.258       .  A
O68          C76   1.258       .  A
O69          C76   1.265       .  A
C70         O925   1.266       .  A
C70         O919   1.262       .  A
C70          C96   1.461       .  S
O71         C918   1.262       .  A
C72          O74   1.265       .  A
C72          O78   1.257       .  A
C72         C478   1.480       .  S
O77         C918   1.266       .  A
In79         O81   2.228       .  S
In79         O82   2.250       .  S
In79         O90   2.264       .  S
In79         O84   2.266       .  S
In79         O86   2.280       .  S
In79         O87   2.272       .  S
In79         O88   2.252       .  S
In79         O91   2.206       .  S
C80          O86   1.269       .  A
C80          O88   1.259       .  A
C80          C98   1.481       .  S
O81          C89   1.264       .  A
O82          C89   1.266       .  A
C83          O90   1.264       .  A
C83          O84   1.268       .  A
C83         C526   1.484   1_554  S
C85          O87   1.267       .  A
C85          O91   1.258       .  A
C89         C179   1.470       .  S
In92         O94   2.262       .  S
In92         O95   2.286       .  S
In92        O103   2.243       .  S
In92         O97   2.222       .  S
In92         O99   2.283       .  S
In92        O100   2.275       .  S
In92        O101   2.225       .  S
In92        O104   2.268       .  S
C93          O99   1.262       .  A
C93         O101   1.258       .  A
O94         C102   1.259       .  A
O95         C102   1.266       .  A
C96         O103   1.265       .  A
C96          O97   1.264       .  A
C98         O100   1.266       .  A
C98         O104   1.259       .  A
C102        C507   1.484       .  S
C105        C106   1.538       .  S
C105        C111   1.523       .  S
C105        C109   1.532       .  S
C105        C396   1.525       .  S
C106        H113   1.086       .  S
C106        C107   1.371       .  D
C107        C108   1.538       .  S
C108        C112   1.557       .  S
C108        C110   1.538       .  S
C108        H114   1.107       .  S
C109        H115   1.087       .  S
C109        C110   1.348       .  D
C110        C419   1.474       .  S
C111        H116   1.078       .  S
C111        C112   1.367       .  D
C112        C406   1.492       .  S
C117        C118   1.552       .  S
C117        C123   1.507       .  S
C117        C121   1.539       .  S
C117        C376   1.524       .  S
C118        H125   1.082       .  S
C118        C119   1.382       .  D
C119        C120   1.549       .  S
C120        C124   1.542       .  S
C120        C122   1.545       .  S
C120        H126   1.109       .  S
C121        H127   1.086       .  S
C121        C122   1.365       .  D
C122        C416   1.498       .  S
C123        H128   1.090       .  S
C123        C124   1.343       .  D
C124        C386   1.469       .  S
C129        C130   1.541       .  S
C129        C135   1.508       .  S
C129        C133   1.544       .  S
C129        C409   1.515       .  S
C130        H137   1.087       .  S
C130        C131   1.358       .  D
C131        C366   1.487       .  S
C131        C132   1.534       .  S
C132        C136   1.533       .  S
C132        C134   1.547       .  S
C132        H138   1.110       .  S
C133        H139   1.084       .  S
C133        C134   1.382       .  D
C134        C207   1.466       .  S
C135        H140   1.090       .  S
C135        C136   1.345       .  D
C136        C399   1.452       .  S
C141        C142   1.524       .  S
C141        C147   1.519       .  S
C141        C145   1.549       .  S
C141        C379   1.528       .  S
C142        H149   1.087       .  S
C142        C143   1.368       .  D
C143        C237   1.479       .  S
C143        C144   1.558       .  S
C144        C148   1.558       .  S
C144        C146   1.530       .  S
C144        H150   1.110       .  S
C145        H151   1.087       .  S
C145        C146   1.358       .  D
C146        C369   1.477       .  S
C147        H152   1.080       .  S
C147        C148   1.362       .  D
C148        C389   1.495       .  S
C153        C154   1.549       .  S
C153        C159   1.524       .  S
C153        C157   1.527       .  S
C153        C349   1.525       .  S
C154        H161   1.086       .  S
C154        C155   1.356       .  D
C155        C356   1.477       .  S
C155        C156   1.532       .  S
C156        C160   1.548       .  S
C156        C158   1.541       .  S
C156        H162   1.110       .  S
C157        H163   1.086       .  S
C157        C158   1.367       .  D
C158        C285   1.464       .  S
C159        H164   1.083       .  S
C159        C160   1.359       .  D
C160        C339   1.482       .  S
C165        C166   1.547       .  S
C165        C171   1.512       .  S
C165        C169   1.540       .  S
C165        C319   1.522       .  S
C166        H173   1.080       .  S
C166        C167   1.377       .  D
C167        C263   1.477       .  S
C167        C168   1.550       .  S
C168        C172   1.537       .  S
C168        C170   1.533       .  S
C168        H174   1.110       .  S
C169        H175   1.086       .  S
C169        C170   1.363       .  D
C170        C359   1.489       .  S
C171        H176   1.089       .  S
C171        C172   1.352       .  D
C172        C326   1.464       .  S
C177        C178   1.539       .  S
C177        C183   1.511       .  S
C177        C181   1.538       .  S
C177        C336   1.515       .  S
C178        H185   1.086       .  S
C178        C179   1.379       .  D
C179        C180   1.554       .  S
C180        C184   1.543       .  S
C180        C182   1.533       .  S
C180        H186   1.111       .  S
C181        H187   1.086       .  S
C181        C182   1.358       .  D
C182        C306   1.473       .  S
C183        H188   1.091   1_565  S
C183        C184   1.341       .  D
C184        C346   1.466       .  S
C189        C190   1.526       .  S
C189        C195   1.524       .  S
C189        C193   1.555       .  S
C189        C316   1.527   1_554  S
C190        H197   1.087       .  S
C190        C191   1.366       .  D
C191        C192   1.549       .  S
C192        C196   1.546       .  S
C192        C194   1.541       .  S
C192        H198   1.110       .  S
C193        H199   1.084   1_554  S
C193        C194   1.368       .  D
C194        C309   1.490       .  S
C195        H200   1.085   1_565  S
C195        C196   1.351       .  D
C196        C329   1.482       .  S
In201       O203   2.198       .  S
In201       O204   2.271       .  S
In201       O212   2.264       .  S
In201       O206   2.264       .  S
In201       O208   2.268       .  S
In201       O209   2.246       .  S
In201       O210   2.247       .  S
In201       O213   2.211       .  S
C202        O208   1.268       .  A
C202        O210   1.259       .  A
C202        C215   1.476       .  S
O203        C211   1.258       .  A
O204        C211   1.268       .  A
C205        O212   1.264       .  A
C205        O206   1.268       .  A
C205        C642   1.483   1_554  S
C207        O209   1.267       .  A
C207        O213   1.263       .  A
C211        C302   1.462       .  S
In214       O216   2.217       .  S
In214       O217   2.261       .  S
In214       O225   2.260       .  S
In214       O219   2.284       .  S
In214       O221   2.276       .  S
In214       O222   2.207       .  S
In214       O223   2.257       .  S
In214       O226   2.240       .  S
C215        O221   1.266       .  A
C215        O223   1.256       .  A
O216        C224   1.257       .  A
O217        C224   1.259       .  A
C218        O225   1.259       .  A
C218        O219   1.266       .  A
C218        C629   1.483       .  S
C220        O222   1.262       .  A
C220        O226   1.266       .  A
C220        C244   1.457       .  S
C224        C289   1.457       .  S
In227       O229   2.247       .  S
In227       O230   2.245       .  S
In227       O238   2.253       .  S
In227       O232   2.266       .  S
In227       O234   2.282       .  S
In227       O235   2.269       .  S
In227       O236   2.263       .  S
In227       O239   2.211       .  S
C228        O234   1.268       .  A
C228        O236   1.260       .  A
C228        C246   1.485       .  S
O229        C237   1.264       .  A
O230        C237   1.267       .  A
C231        O238   1.262       .  A
C231        O232   1.269       .  A
C231        C674   1.480   1_554  S
C233        O235   1.267       .  A
C233        O239   1.257       .  A
C233        C276   1.463       .  S
In240       O242   2.262       .  S
In240       O243   2.279       .  S
In240       O251   2.238       .  S
In240       O245   2.213       .  S
In240       O247   2.282       .  S
In240       O248   2.284       .  S
In240       O249   2.223       .  S
In240       O252   2.272       .  S
C241        O247   1.261       .  A
C241        O249   1.258       .  A
C241        C259   1.466       .  S
O242        C250   1.258       .  A
O243        C250   1.266       .  A
C244        O251   1.265       .  A
C244        O245   1.263       .  A
C246        O248   1.265       .  A
C246        O252   1.259       .  A
C250        C655   1.480       .  S
In253       O255   2.219       .  S
In253       O256   2.261       .  S
In253       O264   2.257       .  S
In253       O258   2.267       .  S
In253       O260   2.275       .  S
In253       O261   2.277       .  S
In253       O262   2.268       .  S
In253       O265   2.202       .  S
C254        O260   1.267       .  A
C254        O262   1.262       .  A
C254        C694   1.486       .  S
O255        C263   1.263       .  A
O256        C263   1.268       .  A
C257        O264   1.263       .  A
C257        O258   1.269       .  A
C257        C267   1.482       .  S
C259        O261   1.269       .  A
C259        O265   1.258       .  A
In266       O268   2.228       .  S
In266       O269   2.272       .  S
In266       O277   2.269       .  S
In266       O271   2.290       .  S
In266       O273   2.285       .  S
In266       O274   2.218       .  S
In266       O275   2.267       .  S
In266       O278   2.241       .  S
C267        O273   1.265       .  A
C267        O275   1.257       .  A
O268        C276   1.257       .  A
O269        C276   1.259       .  A
C270        O277   1.258       .  A
C270        O271   1.265       .  A
C270        C678   1.486   1_554  S
C272       O1122   1.263       .  A
C272       O1126   1.266       .  A
C272        C298   1.459       .  S
O274       C1120   1.263   1_455  A
O278       C1120   1.266   1_455  A
In279       O281   2.201       .  S
In279       O282   2.258       .  S
In279       O290   2.264       .  S
In279       O284   2.261       .  S
In279       O286   2.274       .  S
In279       O287   2.236       .  S
In279       O288   2.249       .  S
In279       O291   2.215       .  S
C280        O286   1.269       .  A
C280        O288   1.259       .  A
C280        C717   1.478       .  S
O281        C289   1.258       .  A
O282        C289   1.267       .  A
C283        O290   1.264       .  A
C283        O284   1.268       .  A
C283        C296   1.483       .  S
C285        O287   1.266       .  A
C285        O291   1.263       .  A
In292       O294   2.215       .  S
In292       O295   2.278       .  S
In292       O303   2.261       .  S
In292       O297   2.287       .  S
In292       O299   2.274       .  S
In292       O300   2.218       .  S
In292       O301   2.261       .  S
In292       O304   2.237       .  S
C293        O299   1.266       .  A
C293        O301   1.258       .  A
C293        C704   1.478   1_554  S
O294        C302   1.256       .  A
O295        C302   1.261       .  A
C296        O303   1.259       .  A
C296        O297   1.265       .  A
C298        O300   1.264       .  A
C298        O304   1.266       .  A
C305        C306   1.401       .  A
C305       C1158   1.394       .  A
C305        F312   1.358       .  S
C306        C307   1.402       .  A
C307       C1156   1.402       .  A
C307        F314   1.358       .  S
C308        C309   1.412   1_655  A
C308       C1155   1.402       .  A
C308        F313   1.358   1_655  S
C309        C310   1.406       .  A
C310       C1153   1.394   1_455  A
C310        F311   1.351       .  S
C315        C320   1.387       .  A
C315        C740   1.395       .  A
C315        F322   1.358       .  S
C316        C317   1.414       .  A
C316        C739   1.395       .  A
C317        C318   1.400   1_565  A
C317        F324   1.358   1_556  S
C318        C743   1.406       .  A
C318        F323   1.354       .  S
C319        C320   1.423   1_545  A
C319        C742   1.406       .  A
C320        F321   1.359       .  S
C325        C326   1.408       .  A
C325        C330   1.402       .  A
C325        F332   1.357       .  S
C326        C327   1.398       .  A
C327        C328   1.388       .  A
C327        F334   1.359       .  S
C328        C329   1.411   1_545  A
C328        F333   1.359       .  S
C329        C330   1.405   1_565  A
C330        F331   1.357   1_545  S
C335        C336   1.409       .  A
C335        C340   1.393   1_565  A
C335        F342   1.356       .  S
C336        C337   1.425   1_565  A
C337        C338   1.384       .  A
C337        F344   1.357       .  S
C338        C339   1.398       .  A
C338        F343   1.354       .  S
C339        C340   1.409       .  A
C340        F341   1.359       .  S
C345        C346   1.410   1_545  A
C345        C774   1.385       .  A
C345        F352   1.359       .  S
C346        C347   1.397       .  A
C347        C772   1.398   1_565  A
C347        F354   1.358       .  S
C348        C349   1.417       .  A
C348        C771   1.398   1_545  A
C348        F353   1.358       .  S
C349        C350   1.402       .  A
C350        C769   1.385       .  A
C350        F351   1.359       .  S
C355        C356   1.405       .  A
C355        C360   1.392       .  A
C355        F362   1.359       .  S
C356        C357   1.400       .  A
C357        C358   1.402       .  A
C357        F364   1.357       .  S
C358       C1207   1.411       .  A
C358       F1211   1.354       .  S
C359       C1206   1.411   1_455  A
C359       C1208   1.408   1_455  A
C360       C1207   1.408       .  A
C360       F1209   1.358       .  S
F361       C1208   1.358   1_455  S
F363       C1206   1.354   1_455  S
C365        C366   1.410       .  A
C365        C370   1.390       .  A
C365        F372   1.358       .  S
C366        C367   1.408       .  A
C367        C368   1.403       .  A
C367        F374   1.356       .  S
C368        C369   1.403       .  A
C368        F373   1.356       .  S
C369        C370   1.403       .  A
C370        F371   1.359       .  S
C375        C376   1.425       .  A
C375        C380   1.385       .  A
C375        F382   1.360       .  S
C376        C377   1.406       .  A
C377        C378   1.403       .  A
C377        F384   1.354       .  S
C378        C379   1.415       .  A
C378        F383   1.357       .  S
C379        C380   1.395       .  A
C380        F381   1.359       .  S
C385        C386   1.405       .  A
C385        C390   1.404       .  A
C385        F392   1.358       .  S
C386        C811   1.403       .  A
C387        C388   1.390   1_556  A
C387        C810   1.403       .  A
C387        F394   1.359       .  S
C388        C389   1.412       .  A
C388        F393   1.359       .  S
C389        C814   1.410       .  A
C390        C813   1.410       .  A
C390        F391   1.354       .  S
C395        C396   1.416       .  A
C395        C824   1.393       .  A
C395        F402   1.357       .  S
C396        C821   1.409       .  A
C397        C398   1.387       .  A
C397        C820   1.409   1_554  A
C397        F828   1.359       .  S
C398        C399   1.402       .  A
C398        F403   1.355       .  S
C399        C400   1.399       .  A
C400        C819   1.393   1_554  A
C400        F401   1.359       .  S
F404        C821   1.359       .  S
C405        C406   1.399       .  A
C405        C410   1.380       .  A
C405        F412   1.354       .  S
C406        C407   1.421       .  A
C407        C408   1.401       .  A
C407        F414   1.359       .  S
C408        C409   1.400       .  A
C408        F413   1.355       .  S
C409        C410   1.420       .  A
C410        F411   1.360       .  S
C415        C416   1.411       .  A
C415        C420   1.400       .  A
C415        F422   1.352       .  S
C416        C417   1.412       .  A
C417        C418   1.398       .  A
C417        F424   1.358       .  S
C418        C419   1.406       .  A
C418        F423   1.359       .  S
C419        C420   1.399       .  A
C420        F421   1.357       .  S
In425       O427   2.226       .  S
In425       O428   2.259       .  S
In425       O436   2.262       .  S
In425       O430   2.269       .  S
In425       O432   2.258       .  S
In425       O433   2.279       .  S
In425       O434   2.250       .  S
In425       O437   2.208       .  S
C426        O432   1.268       .  A
C426        O434   1.261       .  A
O427        C435   1.263       .  A
O428        C435   1.268       .  A
C429        O436   1.264       .  A
C429        O430   1.268       .  A
C429        C439   1.484       .  S
C431        O433   1.269       .  A
C431        O437   1.259       .  A
C431        C517   1.469       .  S
C435        C531   1.474       .  S
In438       O440   2.219       .  S
In438       O441   2.274       .  S
In438       O449   2.250       .  S
In438       O443   2.274       .  S
In438       O445   2.280       .  S
In438       O446   2.219       .  S
In438       O447   2.265       .  S
In438       O450   2.244       .  S
C439        O445   1.266       .  A
C439        O447   1.260       .  A
O440        C448   1.258       .  A
O441        C448   1.262       .  A
C442        O449   1.258       .  A
C442        O443   1.266       .  A
C444        O446   1.264       .  A
C444        O450   1.265       .  A
C444        C470   1.460       .  S
C448        C509   1.464       .  S
In451       O453   2.221       .  S
In451       O454   2.266       .  S
In451       O462   2.260       .  S
In451       O456   2.267       .  S
In451       O458   2.274       .  S
In451       O459   2.263       .  S
In451       O460   2.256       .  S
In451       O463   2.212       .  S
C452        O458   1.268       .  A
C452        O460   1.260       .  A
C452        C468   1.480       .  S
O453        C461   1.263       .  A
O454        C461   1.267       .  A
C455        O462   1.264       .  A
C455        O456   1.270       .  A
C457        O459   1.268       .  A
C457        O463   1.258       .  A
C457        C491   1.464       .  S
C461        C543   1.480       .  S
In464       O466   2.228       .  S
In464       O467   2.269       .  S
In464       O475   2.263       .  S
In464       O469   2.283       .  S
In464       O471   2.290       .  S
In464       O472   2.214       .  S
In464       O473   2.269       .  S
In464       O476   2.246       .  S
C465        O471   1.265       .  A
C465        O473   1.259       .  A
O466        C474   1.257       .  A
O467        C474   1.258       .  A
C468        O475   1.256       .  A
C468        O469   1.265       .  A
C470        O472   1.262       .  A
C470        O476   1.266       .  A
C474        C483   1.461       .  S
In477       O479   2.220       .  S
In477       O480   2.244       .  S
In477       O488   2.264       .  S
In477       O482   2.265       .  S
In477       O484   2.276       .  S
In477       O485   2.264       .  S
In477       O486   2.252       .  S
In477       O489   2.206       .  S
C478        O484   1.269       .  A
C478        O486   1.259       .  A
O479        C487   1.262       .  A
O480        C487   1.267       .  A
C481        O488   1.264       .  A
C481        O482   1.268       .  A
C481        C500   1.483       .  S
C483        O485   1.267       .  A
C483        O489   1.258       .  A
C487        C615   1.475       .  S
In490       O492   2.263       .  S
In490       O493   2.288       .  S
In490       O501   2.245       .  S
In490       O495   2.216       .  S
In490       O497   2.268       .  S
In490       O498   2.282       .  S
In490       O499   2.235       .  S
In490       O502   2.266       .  S
C491        O497   1.258       .  A
C491        O499   1.258       .  A
O492        C500   1.258       .  A
O493        C500   1.265       .  A
C494       O1349   1.266       .  A
C494       O1343   1.262       .  A
C494        C520   1.461       .  S
O495       C1342   1.262       .  A
C496        O498   1.265       .  A
C496        O502   1.257       .  A
O501       C1342   1.266       .  A
In503       O505   2.228       .  S
In503       O506   2.250       .  S
In503       O514   2.264       .  S
In503       O508   2.266       .  S
In503       O510   2.280       .  S
In503       O511   2.272       .  S
In503       O512   2.252       .  S
In503       O515   2.206       .  S
C504        O510   1.269       .  A
C504        O512   1.259       .  A
C504        C522   1.481       .  S
O505        C513   1.264       .  A
O506        C513   1.266       .  A
C507        O514   1.264       .  A
C507        O508   1.268       .  A
C509        O511   1.267       .  A
C509        O515   1.258       .  A
C513        C603   1.470       .  S
In516       O518   2.262       .  S
In516       O519   2.286       .  S
In516       O527   2.243       .  S
In516       O521   2.222       .  S
In516       O523   2.283       .  S
In516       O524   2.275       .  S
In516       O525   2.225       .  S
In516       O528   2.268       .  S
C517        O523   1.262       .  A
C517        O525   1.258       .  A
O518        C526   1.259       .  A
O519        C526   1.266       .  A
C520        O527   1.265       .  A
C520        O521   1.264       .  A
C522        O524   1.266       .  A
C522        O528   1.259       .  A
C529        C530   1.538       .  S
C529        C535   1.523       .  S
C529        C533   1.532       .  S
C529        C820   1.525       .  S
C530        H537   1.086       .  S
C530        C531   1.371       .  D
C531        C532   1.538       .  S
C532        C536   1.557       .  S
C532        C534   1.538       .  S
C532        H538   1.107       .  S
C533        H539   1.087       .  S
C533        C534   1.348       .  D
C534        C843   1.474       .  S
C535        H540   1.078       .  S
C535        C536   1.367       .  D
C536        C830   1.492       .  S
C541        C542   1.552       .  S
C541        C547   1.507       .  S
C541        C545   1.539       .  S
C541        C800   1.524       .  S
C542        H549   1.082       .  S
C542        C543   1.382       .  D
C543        C544   1.549       .  S
C544        C548   1.542       .  S
C544        C546   1.545       .  S
C544        H550   1.109       .  S
C545        H551   1.086       .  S
C545        C546   1.365       .  D
C546        C840   1.498       .  S
C547        H552   1.090       .  S
C547        C548   1.343       .  D
C548        C810   1.469       .  S
C553        C554   1.541       .  S
C553        C559   1.508       .  S
C553        C557   1.544       .  S
C553        C833   1.515       .  S
C554        H561   1.087       .  S
C554        C555   1.358       .  D
C555        C790   1.487       .  S
C555        C556   1.534       .  S
C556        C560   1.533       .  S
C556        C558   1.547       .  S
C556        H562   1.110       .  S
C557        H563   1.084       .  S
C557        C558   1.382       .  D
C558        C631   1.466       .  S
C559        H564   1.090       .  S
C559        C560   1.345       .  D
C560        C823   1.452       .  S
C565        C566   1.524       .  S
C565        C571   1.519       .  S
C565        C569   1.549       .  S
C565        C803   1.528       .  S
C566        H573   1.087       .  S
C566        C567   1.368       .  D
C567        C661   1.479       .  S
C567        C568   1.558       .  S
C568        C572   1.558       .  S
C568        C570   1.530       .  S
C568        H574   1.110       .  S
C569        H575   1.087       .  S
C569        C570   1.358       .  D
C570        C793   1.477       .  S
C571        H576   1.080       .  S
C571        C572   1.362       .  D
C572        C813   1.495       .  S
C577        C578   1.549       .  S
C577        C583   1.524       .  S
C577        C581   1.527       .  S
C577        C773   1.525   1_556  S
C578        H585   1.086       .  S
C578        C579   1.356       .  D
C579        C780   1.477       .  S
C579        C580   1.532       .  S
C580        C584   1.548       .  S
C580        C582   1.541       .  S
C580        H586   1.110       .  S
C581        H587   1.086       .  S
C581        C582   1.367       .  D
C582        C709   1.464       .  S
C583        H588   1.083       .  S
C583        C584   1.359       .  D
C584        C763   1.482       .  S
C589        C590   1.547       .  S
C589        C595   1.512       .  S
C589        C593   1.540       .  S
C589        C743   1.522       .  S
C590        H597   1.080       .  S
C590        C591   1.377       .  D
C591        C687   1.477       .  S
C591        C592   1.550       .  S
C592        C596   1.537       .  S
C592        C594   1.532       .  S
C592        H598   1.110       .  S
C593        H599   1.086       .  S
C593        C594   1.363       .  D
C594        C783   1.489       .  S
C595        H600   1.089       .  S
C595        C596   1.352       .  D
C596        C750   1.464       .  S
C601        C602   1.539       .  S
C601        C607   1.511       .  S
C601        C605   1.538       .  S
C601        C760   1.515       .  S
C602        H609   1.086       .  S
C602        C603   1.379       .  D
C603        C604   1.554       .  S
C604        C608   1.543       .  S
C604        C606   1.533       .  S
C604        H610   1.111       .  S
C605        H611   1.086       .  S
C605        C606   1.358       .  D
C606        C730   1.473       .  S
C607        H612   1.091   1_565  S
C607        C608   1.341       .  D
C608        C770   1.466       .  S
C613        C614   1.526       .  S
C613        C619   1.524       .  S
C613        C617   1.555       .  S
C613        C740   1.527       .  S
C614        H621   1.087       .  S
C614        C615   1.366       .  D
C615        C616   1.549       .  S
C616        C620   1.546       .  S
C616        C618   1.541       .  S
C616        H622   1.110       .  S
C617        H623   1.084       .  S
C617        C618   1.368       .  D
C618        C733   1.490       .  S
C619        H624   1.085   1_565  S
C619        C620   1.351       .  D
C620        C753   1.482       .  S
In625       O627   2.198       .  S
In625       O628   2.271       .  S
In625       O636   2.264       .  S
In625       O630   2.264       .  S
In625       O632   2.268       .  S
In625       O633   2.246       .  S
In625       O634   2.247       .  S
In625       O637   2.211       .  S
C626        O632   1.268       .  A
C626        O634   1.259       .  A
C626        C639   1.476       .  S
O627        C635   1.258       .  A
O628        C635   1.268       .  A
C629        O636   1.264       .  A
C629        O630   1.268       .  A
C631        O633   1.267       .  A
C631        O637   1.263       .  A
C635        C726   1.462       .  S
In638       O640   2.217       .  S
In638       O641   2.261       .  S
In638       O649   2.260       .  S
In638       O643   2.284       .  S
In638       O645   2.276       .  S
In638       O646   2.207       .  S
In638       O647   2.257       .  S
In638       O650   2.240       .  S
C639        O645   1.266       .  A
C639        O647   1.256       .  A
O640        C648   1.257       .  A
O641        C648   1.259       .  A
C642        O649   1.259       .  A
C642        O643   1.266       .  A
C644        O646   1.262       .  A
C644        O650   1.266       .  A
C644        C668   1.457       .  S
C648        C713   1.457       .  S
In651       O653   2.247       .  S
In651       O654   2.245       .  S
In651       O662   2.253       .  S
In651       O656   2.266       .  S
In651       O658   2.282       .  S
In651       O659   2.269       .  S
In651       O660   2.263       .  S
In651       O663   2.211       .  S
C652        O658   1.268       .  A
C652        O660   1.260       .  A
C652        C670   1.485       .  S
O653        C661   1.264       .  A
O654        C661   1.267       .  A
C655        O662   1.262       .  A
C655        O656   1.269       .  A
C657        O659   1.267       .  A
C657        O663   1.257       .  A
C657        C700   1.463       .  S
In664       O666   2.262       .  S
In664       O667   2.279       .  S
In664       O675   2.238       .  S
In664       O669   2.213       .  S
In664       O671   2.282       .  S
In664       O672   2.284       .  S
In664       O673   2.223       .  S
In664       O676   2.272       .  S
C665        O671   1.261       .  A
C665        O673   1.258       .  A
C665        C683   1.466       .  S
O666        C674   1.258       .  A
O667        C674   1.266       .  A
C668        O675   1.265       .  A
C668        O669   1.263       .  A
C670        O672   1.265       .  A
C670        O676   1.259       .  A
In677       O679   2.219       .  S
In677       O680   2.261       .  S
In677       O688   2.257       .  S
In677       O682   2.267       .  S
In677       O684   2.275       .  S
In677       O685   2.277       .  S
In677       O686   2.268       .  S
In677       O689   2.202       .  S
C678        O684   1.267       .  A
C678        O686   1.262       .  A
O679        C687   1.263       .  A
O680        C687   1.268       .  A
C681        O688   1.263       .  A
C681        O682   1.269       .  A
C681        C691   1.482       .  S
C683        O685   1.269       .  A
C683        O689   1.258       .  A
In690       O692   2.228       .  S
In690       O693   2.272       .  S
In690       O701   2.269       .  S
In690       O695   2.290       .  S
In690       O697   2.285       .  S
In690       O698   2.218       .  S
In690       O699   2.267       .  S
In690       O702   2.241       .  S
C691        O697   1.265       .  A
C691        O699   1.257       .  A
O692        C700   1.257       .  A
O693        C700   1.259       .  A
C694        O701   1.258       .  A
C694        O695   1.265       .  A
C696       O1546   1.263       .  A
C696       O1550   1.266       .  A
C696        C722   1.459       .  S
O698       C1544   1.263   1_455  A
O702       C1544   1.266   1_455  A
In703       O705   2.201       .  S
In703       O706   2.258       .  S
In703       O714   2.264       .  S
In703       O708   2.261       .  S
In703       O710   2.274       .  S
In703       O711   2.236       .  S
In703       O712   2.249       .  S
In703       O715   2.215       .  S
C704        O710   1.269       .  A
C704        O712   1.259       .  A
O705        C713   1.258       .  A
O706        C713   1.267       .  A
C707        O714   1.264       .  A
C707        O708   1.268       .  A
C707        C720   1.483       .  S
C709        O711   1.266       .  A
C709        O715   1.263       .  A
In716       O718   2.215       .  S
In716       O719   2.278       .  S
In716       O727   2.261       .  S
In716       O721   2.287       .  S
In716       O723   2.274       .  S
In716       O724   2.218       .  S
In716       O725   2.261       .  S
In716       O728   2.237       .  S
C717        O723   1.266       .  A
C717        O725   1.258       .  A
O718        C726   1.256       .  A
O719        C726   1.261       .  A
C720        O727   1.259       .  A
C720        O721   1.265       .  A
C722        O724   1.264       .  A
C722        O728   1.266       .  A
C729        C730   1.401       .  A
C729       C1582   1.394       .  A
C729        F736   1.358       .  S
C730        C731   1.402       .  A
C731       C1580   1.402       .  A
C731        F738   1.358       .  S
C732       C1579   1.402       .  A
C732        C733   1.412   1_655  A
C732        F737   1.358   1_655  S
C733        C734   1.406       .  A
C734       C1577   1.394   1_455  A
C734        F735   1.351       .  S
C739        C744   1.387       .  A
C739        F746   1.358       .  S
C740        C741   1.414       .  A
C741        C742   1.400   1_565  A
C741        F748   1.358       .  S
C742        F747   1.354       .  S
C743        C744   1.423   1_545  A
C744        F745   1.359       .  S
C749        C750   1.408       .  A
C749        C754   1.402       .  A
C749        F756   1.357       .  S
C750        C751   1.398       .  A
C751        C752   1.388       .  A
C751        F758   1.359       .  S
C752        C753   1.411   1_545  A
C752        F757   1.359       .  S
C753        C754   1.405   1_565  A
C754        F755   1.357   1_545  S
C759        C760   1.409       .  A
C759        C764   1.393   1_565  A
C759        F766   1.356       .  S
C760        C761   1.425   1_565  A
C761        C762   1.384       .  A
C761        F768   1.357       .  S
C762        C763   1.398       .  A
C762        F767   1.354       .  S
C763        C764   1.409       .  A
C764        F765   1.359       .  S
C769        C770   1.410   1_545  A
C769        F776   1.359       .  S
C770        C771   1.397       .  A
C771        F778   1.358       .  S
C772        C773   1.417       .  A
C772        F777   1.358   1_554  S
C773        C774   1.402       .  A
C774        F775   1.359       .  S
C779        C780   1.405       .  A
C779        C784   1.392       .  A
C779        F786   1.359       .  S
C780        C781   1.400       .  A
C781        C782   1.402       .  A
C781        F788   1.357       .  S
C782       C1631   1.411       .  A
C782       F1635   1.354       .  S
C783       C1630   1.411   1_455  A
C783       C1632   1.408   1_455  A
C784       C1631   1.408       .  A
C784       F1633   1.358       .  S
F785       C1632   1.358   1_455  S
F787       C1630   1.354   1_455  S
C789        C790   1.410       .  A
C789        C794   1.390       .  A
C789        F796   1.358       .  S
C790        C791   1.408       .  A
C791        C792   1.403       .  A
C791        F798   1.356       .  S
C792        C793   1.403       .  A
C792        F797   1.356       .  S
C793        C794   1.403       .  A
C794        F795   1.359       .  S
C799        C800   1.425       .  A
C799        C804   1.385       .  A
C799        F806   1.360       .  S
C800        C801   1.406       .  A
C801        C802   1.403       .  A
C801        F808   1.354       .  S
C802        C803   1.415       .  A
C802        F807   1.357       .  S
C803        C804   1.395       .  A
C804        F805   1.359       .  S
C809        C810   1.405       .  A
C809        C814   1.404   1_556  A
C809        F816   1.358       .  S
C811        C812   1.390       .  A
C811        F818   1.359       .  S
C812        C813   1.412       .  A
C812        F817   1.359       .  S
C814        F815   1.354       .  S
C819        C820   1.416       .  A
C819        F826   1.357       .  S
C821        C822   1.387       .  A
C822        C823   1.402       .  A
C822        F827   1.355       .  S
C823        C824   1.399       .  A
C824        F825   1.359       .  S
C829        C830   1.399       .  A
C829        C834   1.380       .  A
C829        F836   1.354       .  S
C830        C831   1.421       .  A
C831        C832   1.401       .  A
C831        F838   1.359       .  S
C832        C833   1.400       .  A
C832        F837   1.355       .  S
C833        C834   1.420       .  A
C834        F835   1.360       .  S
C839        C840   1.411       .  A
C839        C844   1.400       .  A
C839        F846   1.352       .  S
C840        C841   1.412       .  A
C841        C842   1.398       .  A
C841        F848   1.358       .  S
C842        C843   1.406       .  A
C842        F847   1.359       .  S
C843        C844   1.399       .  A
C844        F845   1.357       .  S
In849       O851   2.226       .  S
In849       O852   2.259       .  S
In849       O860   2.262       .  S
In849       O854   2.269       .  S
In849       O856   2.258       .  S
In849       O857   2.279       .  S
In849       O858   2.250       .  S
In849       O861   2.208       .  S
C850        O856   1.268       .  A
C850        O858   1.261       .  A
C850       C1290   1.475       .  S
O851        C859   1.263       .  A
O852        C859   1.268       .  A
C853        O860   1.264       .  A
C853        O854   1.268       .  A
C853        C863   1.484       .  S
C855        O857   1.269       .  A
C855        O861   1.259       .  A
C855        C941   1.469       .  S
C859        C955   1.474       .  S
In862       O864   2.219       .  S
In862       O865   2.274       .  S
In862       O873   2.250       .  S
In862       O867   2.274       .  S
In862       O869   2.280       .  S
In862       O870   2.219       .  S
In862       O871   2.265       .  S
In862       O874   2.244       .  S
C863        O869   1.266       .  A
C863        O871   1.260       .  A
O864        C872   1.258       .  A
O865        C872   1.262       .  A
C866        O873   1.258       .  A
C866        O867   1.266       .  A
C866       C1274   1.475   1_554  S
C868        O870   1.264       .  A
C868        O874   1.265       .  A
C868        C894   1.460       .  S
C872        C933   1.464       .  S
In875       O877   2.221       .  S
In875       O878   2.266       .  S
In875       O886   2.260       .  S
In875       O880   2.267       .  S
In875       O882   2.274       .  S
In875       O883   2.263       .  S
In875       O884   2.256       .  S
In875       O887   2.212       .  S
C876        O882   1.268       .  A
C876        O884   1.260       .  A
C876        C892   1.480       .  S
O877        C885   1.263       .  A
O878        C885   1.267       .  A
C879        O886   1.264       .  A
C879        O880   1.270       .  A
C879       C1313   1.484       .  S
C881        O883   1.268       .  A
C881        O887   1.258       .  A
C881        C915   1.464       .  S
C885        C967   1.480       .  S
In888       O890   2.228       .  S
In888       O891   2.269       .  S
In888       O899   2.263       .  S
In888       O893   2.283       .  S
In888       O895   2.290       .  S
In888       O896   2.214       .  S
In888       O897   2.269       .  S
In888       O900   2.246       .  S
C889        O895   1.265       .  A
C889        O897   1.259       .  A
C889       C1303   1.484   1_554  S
O890        C898   1.257       .  A
O891        C898   1.258       .  A
C892        O899   1.256       .  A
C892        O893   1.265       .  A
C894        O896   1.262       .  A
C894        O900   1.266       .  A
C898        C907   1.461       .  S
In901       O903   2.220       .  S
In901       O904   2.244       .  S
In901       O912   2.264       .  S
In901       O906   2.265       .  S
In901       O908   2.276       .  S
In901       O909   2.264       .  S
In901       O910   2.252       .  S
In901       O913   2.206       .  S
C902        O908   1.269       .  A
C902        O910   1.259       .  A
C902       C1344   1.480   1_554  S
O903        C911   1.262       .  A
O904        C911   1.267       .  A
C905        O912   1.264       .  A
C905        O906   1.268       .  A
C905        C924   1.483       .  S
C907        O909   1.268       .  A
C907        O913   1.258       .  A
C911       C1039   1.475       .  S
In914       O916   2.263       .  S
In914       O917   2.288       .  S
In914       O925   2.245       .  S
In914       O919   2.216       .  S
In914       O921   2.268       .  S
In914       O922   2.282       .  S
In914       O923   2.235       .  S
In914       O926   2.266       .  S
C915        O921   1.258       .  A
C915        O923   1.258       .  A
O916        C924   1.258       .  A
O917        C924   1.265       .  A
C918        C944   1.461   1_455  S
C920        O922   1.265       .  A
C920        O926   1.257       .  A
C920       C1326   1.480       .  S
In927       O929   2.228       .  S
In927       O930   2.250       .  S
In927       O938   2.264       .  S
In927       O932   2.266       .  S
In927       O934   2.280       .  S
In927       O935   2.272       .  S
In927       O936   2.252       .  S
In927       O939   2.206       .  S
C928        O934   1.269       .  A
C928        O936   1.259       .  A
C928        C946   1.481       .  S
O929        C937   1.264       .  A
O930        C937   1.266       .  A
C931        O938   1.264       .  A
C931        O932   1.268       .  A
C931       C1374   1.484   1_554  S
C933        O935   1.267       .  A
C933        O939   1.258       .  A
C937       C1027   1.470       .  S
In940       O942   2.262       .  S
In940       O943   2.286       .  S
In940       O951   2.243       .  S
In940       O945   2.222       .  S
In940       O947   2.283       .  S
In940       O948   2.275       .  S
In940       O949   2.225       .  S
In940       O952   2.268       .  S
C941        O947   1.262       .  A
C941        O949   1.258       .  A
O942        C950   1.259       .  A
O943        C950   1.266       .  A
C944        O951   1.265       .  A
C944        O945   1.264       .  A
C946        O948   1.266       .  A
C946        O952   1.259       .  A
C950       C1355   1.484       .  S
C953        C954   1.538       .  S
C953        C959   1.523       .  S
C953        C957   1.532       .  S
C953       C1244   1.525       .  S
C954        H961   1.086       .  S
C954        C955   1.371       .  D
C955        C956   1.538       .  S
C956        C960   1.557       .  S
C956        C958   1.538       .  S
C956        H962   1.107       .  S
C957        H963   1.087       .  S
C957        C958   1.348       .  D
C958       C1267   1.474       .  S
C959        H964   1.078       .  S
C959        C960   1.367       .  D
C960       C1254   1.492       .  S
C965        C966   1.552       .  S
C965        C971   1.507       .  S
C965        C969   1.539       .  S
C965       C1224   1.524       .  S
C966        H973   1.082       .  S
C966        C967   1.382       .  D
C967        C968   1.549       .  S
C968        C972   1.542       .  S
C968        C970   1.545       .  S
C968        H974   1.109       .  S
C969        H975   1.086       .  S
C969        C970   1.365       .  D
C970       C1264   1.498       .  S
C971        H976   1.090       .  S
C971        C972   1.343       .  D
C972       C1234   1.469       .  S
C977        C978   1.541       .  S
C977        C983   1.508       .  S
C977        C981   1.544       .  S
C977       C1257   1.515       .  S
C978        H985   1.087       .  S
C978        C979   1.358       .  D
C979       C1214   1.487       .  S
C979        C980   1.534       .  S
C980        C984   1.533       .  S
C980        C982   1.547       .  S
C980        H986   1.110       .  S
C981        H987   1.084       .  S
C981        C982   1.382       .  D
C982       C1055   1.466       .  S
C983        H988   1.090       .  S
C983        C984   1.345       .  D
C984       C1247   1.452       .  S
C989        C990   1.524       .  S
C989        C995   1.519       .  S
C989        C993   1.549       .  S
C989       C1227   1.528       .  S
C990        H997   1.087       .  S
C990        C991   1.368       .  D
C991       C1085   1.479       .  S
C991        C992   1.558       .  S
C992        C996   1.558       .  S
C992        C994   1.530       .  S
C992        H998   1.110       .  S
C993        H999   1.087       .  S
C993        C994   1.358       .  D
C994       C1217   1.477       .  S
C995       H1000   1.080       .  S
C995        C996   1.362       .  D
C996       C1237   1.495       .  S
C1001      C1002   1.549       .  S
C1001      C1007   1.524       .  S
C1001      C1005   1.527       .  S
C1001      C1197   1.525       .  S
C1002      H1009   1.086       .  S
C1002      C1003   1.356       .  D
C1003      C1204   1.477       .  S
C1003      C1004   1.532       .  S
C1004      C1008   1.548       .  S
C1004      C1006   1.541       .  S
C1004      H1010   1.110       .  S
C1005      H1011   1.086       .  S
C1005      C1006   1.367       .  D
C1006      C1133   1.464       .  S
C1007      H1012   1.083       .  S
C1007      C1008   1.359       .  D
C1008      C1187   1.482       .  S
C1013      C1014   1.547       .  S
C1013      C1019   1.512       .  S
C1013      C1017   1.540       .  S
C1013      C1167   1.522       .  S
C1014      H1021   1.080       .  S
C1014      C1015   1.377       .  D
C1015      C1111   1.477       .  S
C1015      C1016   1.550       .  S
C1016      C1020   1.537       .  S
C1016      C1018   1.533       .  S
C1016      H1022   1.110       .  S
C1017      H1023   1.086       .  S
C1017      C1018   1.363       .  D
C1018      C1207   1.489       .  S
C1019      H1024   1.089       .  S
C1019      C1020   1.352       .  D
C1020      C1174   1.464       .  S
C1025      C1026   1.539       .  S
C1025      C1031   1.511       .  S
C1025      C1029   1.538       .  S
C1025      C1184   1.515       .  S
C1026      H1033   1.086       .  S
C1026      C1027   1.379       .  D
C1027      C1028   1.554       .  S
C1028      C1032   1.543       .  S
C1028      C1030   1.533       .  S
C1028      H1034   1.111       .  S
C1029      H1035   1.086       .  S
C1029      C1030   1.358       .  D
C1030      C1154   1.473       .  S
C1031      H1036   1.091   1_565  S
C1031      C1032   1.341       .  D
C1032      C1194   1.466       .  S
C1037      C1038   1.526       .  S
C1037      C1043   1.524       .  S
C1037      C1041   1.555       .  S
C1037      C1164   1.527   1_554  S
C1038      H1045   1.087       .  S
C1038      C1039   1.366       .  D
C1039      C1040   1.549       .  S
C1040      C1044   1.546       .  S
C1040      C1042   1.541       .  S
C1040      H1046   1.110       .  S
C1041      H1047   1.084   1_554  S
C1041      C1042   1.368       .  D
C1042      C1157   1.490       .  S
C1043      H1048   1.085   1_565  S
C1043      C1044   1.351       .  D
C1044      C1177   1.482       .  S
In1049     O1051   2.198       .  S
In1049     O1052   2.271       .  S
In1049     O1060   2.264       .  S
In1049     O1054   2.264       .  S
In1049     O1056   2.268       .  S
In1049     O1057   2.246       .  S
In1049     O1058   2.247       .  S
In1049     O1061   2.211       .  S
C1050      O1056   1.268       .  A
C1050      O1058   1.259       .  A
C1050      C1063   1.476       .  S
O1051      C1059   1.258       .  A
O1052      C1059   1.268       .  A
C1053      O1060   1.264       .  A
C1053      O1054   1.268       .  A
C1053      C1490   1.483   1_554  S
C1055      O1057   1.267       .  A
C1055      O1061   1.263       .  A
C1059      C1150   1.462       .  S
In1062     O1064   2.217       .  S
In1062     O1065   2.261       .  S
In1062     O1073   2.260       .  S
In1062     O1067   2.284       .  S
In1062     O1069   2.276       .  S
In1062     O1070   2.207       .  S
In1062     O1071   2.257       .  S
In1062     O1074   2.240       .  S
C1063      O1069   1.266       .  A
C1063      O1071   1.256       .  A
O1064      C1072   1.257       .  A
O1065      C1072   1.259       .  A
C1066      O1073   1.259       .  A
C1066      O1067   1.266       .  A
C1066      C1477   1.483       .  S
C1068      O1070   1.262       .  A
C1068      O1074   1.266       .  A
C1068      C1092   1.457       .  S
C1072      C1137   1.457       .  S
In1075     O1077   2.247       .  S
In1075     O1078   2.245       .  S
In1075     O1086   2.253       .  S
In1075     O1080   2.266       .  S
In1075     O1082   2.282       .  S
In1075     O1083   2.269       .  S
In1075     O1084   2.263       .  S
In1075     O1087   2.211       .  S
C1076      O1082   1.268       .  A
C1076      O1084   1.260       .  A
C1076      C1094   1.485       .  S
O1077      C1085   1.264       .  A
O1078      C1085   1.267       .  A
C1079      O1086   1.262       .  A
C1079      O1080   1.269       .  A
C1079      C1522   1.480   1_554  S
C1081      O1083   1.267       .  A
C1081      O1087   1.257       .  A
C1081      C1124   1.463       .  S
In1088     O1090   2.262       .  S
In1088     O1091   2.279       .  S
In1088     O1099   2.238       .  S
In1088     O1093   2.213       .  S
In1088     O1095   2.282       .  S
In1088     O1096   2.284       .  S
In1088     O1097   2.223       .  S
In1088     O1100   2.272       .  S
C1089      O1095   1.261       .  A
C1089      O1097   1.258       .  A
C1089      C1107   1.466       .  S
O1090      C1098   1.258       .  A
O1091      C1098   1.266       .  A
C1092      O1099   1.265       .  A
C1092      O1093   1.263       .  A
C1094      O1096   1.265       .  A
C1094      O1100   1.259       .  A
C1098      C1503   1.480       .  S
In1101     O1103   2.219       .  S
In1101     O1104   2.261       .  S
In1101     O1112   2.257       .  S
In1101     O1106   2.267       .  S
In1101     O1108   2.275       .  S
In1101     O1109   2.277       .  S
In1101     O1110   2.268       .  S
In1101     O1113   2.202       .  S
C1102      O1108   1.267       .  A
C1102      O1110   1.262       .  A
C1102      C1542   1.486       .  S
O1103      C1111   1.263       .  A
O1104      C1111   1.268       .  A
C1105      O1112   1.263       .  A
C1105      O1106   1.269       .  A
C1105      C1115   1.482       .  S
C1107      O1109   1.269       .  A
C1107      O1113   1.258       .  A
In1114     O1116   2.228       .  S
In1114     O1117   2.272       .  S
In1114     O1125   2.269       .  S
In1114     O1119   2.290       .  S
In1114     O1121   2.285       .  S
In1114     O1122   2.218       .  S
In1114     O1123   2.267       .  S
In1114     O1126   2.241       .  S
C1115      O1121   1.265       .  A
C1115      O1123   1.257       .  A
O1116      C1124   1.257       .  A
O1117      C1124   1.259       .  A
C1118      O1125   1.258       .  A
C1118      O1119   1.265       .  A
C1118      C1526   1.486   1_554  S
C1120      C1146   1.459       .  S
In1127     O1129   2.201       .  S
In1127     O1130   2.258       .  S
In1127     O1138   2.264       .  S
In1127     O1132   2.261       .  S
In1127     O1134   2.274       .  S
In1127     O1135   2.236       .  S
In1127     O1136   2.249       .  S
In1127     O1139   2.215       .  S
C1128      O1134   1.269       .  A
C1128      O1136   1.259       .  A
C1128      C1565   1.478       .  S
O1129      C1137   1.258       .  A
O1130      C1137   1.267       .  A
C1131      O1138   1.264       .  A
C1131      O1132   1.268       .  A
C1131      C1144   1.483       .  S
C1133      O1135   1.266       .  A
C1133      O1139   1.263       .  A
In1140     O1142   2.215       .  S
In1140     O1143   2.278       .  S
In1140     O1151   2.261       .  S
In1140     O1145   2.287       .  S
In1140     O1147   2.274       .  S
In1140     O1148   2.218       .  S
In1140     O1149   2.261       .  S
In1140     O1152   2.237       .  S
C1141      O1147   1.266       .  A
C1141      O1149   1.258       .  A
C1141      C1552   1.478   1_554  S
O1142      C1150   1.256       .  A
O1143      C1150   1.261       .  A
C1144      O1151   1.259       .  A
C1144      O1145   1.265       .  A
C1146      O1148   1.264       .  A
C1146      O1152   1.266       .  A
C1153      C1154   1.401       .  A
C1153      F1160   1.358       .  S
C1154      C1155   1.402       .  A
C1155      F1162   1.358       .  S
C1156      C1157   1.412       .  A
C1156      F1161   1.358       .  S
C1157      C1158   1.406       .  A
C1158      F1159   1.351       .  S
C1163      C1588   1.395       .  A
C1163      C1168   1.387       .  A
C1163      F1170   1.358       .  S
C1164      C1587   1.395       .  A
C1164      C1165   1.414       .  A
C1165      C1166   1.400   1_565  A
C1165      F1172   1.358   1_556  S
C1166      C1591   1.406       .  A
C1166      F1171   1.354       .  S
C1167      C1590   1.406       .  A
C1167      C1168   1.423   1_545  A
C1168      F1169   1.359       .  S
C1173      C1174   1.408       .  A
C1173      C1178   1.402       .  A
C1173      F1180   1.357       .  S
C1174      C1175   1.398       .  A
C1175      C1176   1.388       .  A
C1175      F1182   1.359       .  S
C1176      C1177   1.411   1_545  A
C1176      F1181   1.359       .  S
C1177      C1178   1.405   1_565  A
C1178      F1179   1.357   1_545  S
C1183      C1184   1.409       .  A
C1183      C1188   1.393   1_565  A
C1183      F1190   1.356       .  S
C1184      C1185   1.425   1_565  A
C1185      C1186   1.384       .  A
C1185      F1192   1.357       .  S
C1186      C1187   1.398       .  A
C1186      F1191   1.354       .  S
C1187      C1188   1.409       .  A
C1188      F1189   1.359       .  S
C1193      C1194   1.410   1_545  A
C1193      C1622   1.385       .  A
C1193      F1200   1.359       .  S
C1194      C1195   1.397       .  A
C1195      C1620   1.398   1_565  A
C1195      F1202   1.358       .  S
C1196      C1619   1.398   1_545  A
C1196      C1197   1.417       .  A
C1196      F1201   1.358       .  S
C1197      C1198   1.402       .  A
C1198      C1617   1.385       .  A
C1198      F1199   1.359       .  S
C1203      C1204   1.405       .  A
C1203      C1208   1.392       .  A
C1203      F1210   1.359       .  S
C1204      C1205   1.400       .  A
C1205      C1206   1.402       .  A
C1205      F1212   1.357       .  S
C1213      C1214   1.410       .  A
C1213      C1218   1.390       .  A
C1213      F1220   1.358       .  S
C1214      C1215   1.408       .  A
C1215      C1216   1.403       .  A
C1215      F1222   1.356       .  S
C1216      C1217   1.403       .  A
C1216      F1221   1.356       .  S
C1217      C1218   1.403       .  A
C1218      F1219   1.359       .  S
C1223      C1224   1.425       .  A
C1223      C1228   1.385       .  A
C1223      F1230   1.360       .  S
C1224      C1225   1.406       .  A
C1225      C1226   1.403       .  A
C1225      F1232   1.354       .  S
C1226      C1227   1.415       .  A
C1226      F1231   1.357       .  S
C1227      C1228   1.395       .  A
C1228      F1229   1.359       .  S
C1233      C1234   1.405       .  A
C1233      C1238   1.404       .  A
C1233      F1240   1.358       .  S
C1234      C1659   1.403       .  A
C1235      C1658   1.403       .  A
C1235      C1236   1.390   1_556  A
C1235      F1242   1.359       .  S
C1236      C1237   1.412       .  A
C1236      F1241   1.359       .  S
C1237      C1662   1.410       .  A
C1238      C1661   1.410       .  A
C1238      F1239   1.354       .  S
C1243      C1244   1.416       .  A
C1243      C1672   1.393       .  A
C1243      F1250   1.357       .  S
C1244      C1669   1.409       .  A
C1245      C1668   1.409   1_554  A
C1245      C1246   1.387       .  A
C1245      F1676   1.359       .  S
C1246      C1247   1.402       .  A
C1246      F1251   1.355       .  S
C1247      C1248   1.399       .  A
C1248      C1667   1.393   1_554  A
C1248      F1249   1.359       .  S
F1252      C1669   1.359       .  S
C1253      C1254   1.399       .  A
C1253      C1258   1.380       .  A
C1253      F1260   1.354       .  S
C1254      C1255   1.421       .  A
C1255      C1256   1.401       .  A
C1255      F1262   1.359       .  S
C1256      C1257   1.400       .  A
C1256      F1261   1.355       .  S
C1257      C1258   1.420       .  A
C1258      F1259   1.360       .  S
C1263      C1264   1.411       .  A
C1263      C1268   1.400       .  A
C1263      F1270   1.352       .  S
C1264      C1265   1.412       .  A
C1265      C1266   1.398       .  A
C1265      F1272   1.358       .  S
C1266      C1267   1.406       .  A
C1266      F1271   1.359       .  S
C1267      C1268   1.399       .  A
C1268      F1269   1.357       .  S
In1273     O1275   2.226       .  S
In1273     O1276   2.259       .  S
In1273     O1284   2.262       .  S
In1273     O1278   2.269       .  S
In1273     O1280   2.258       .  S
In1273     O1281   2.279       .  S
In1273     O1282   2.250       .  S
In1273     O1285   2.208       .  S
C1274      O1280   1.268       .  A
C1274      O1282   1.261       .  A
O1275      C1283   1.263       .  A
O1276      C1283   1.268       .  A
C1277      O1284   1.264       .  A
C1277      O1278   1.268       .  A
C1277      C1287   1.484       .  S
C1279      O1281   1.269       .  A
C1279      O1285   1.259       .  A
C1279      C1365   1.469       .  S
C1283      C1379   1.474       .  S
In1286     O1288   2.219       .  S
In1286     O1289   2.274       .  S
In1286     O1297   2.250       .  S
In1286     O1291   2.274       .  S
In1286     O1293   2.280       .  S
In1286     O1294   2.219       .  S
In1286     O1295   2.265       .  S
In1286     O1298   2.244       .  S
C1287      O1293   1.266       .  A
C1287      O1295   1.260       .  A
O1288      C1296   1.258       .  A
O1289      C1296   1.262       .  A
C1290      O1297   1.258       .  A
C1290      O1291   1.266       .  A
C1292      O1294   1.264       .  A
C1292      O1298   1.265       .  A
C1292      C1318   1.460       .  S
C1296      C1357   1.464       .  S
In1299     O1301   2.221       .  S
In1299     O1302   2.266       .  S
In1299     O1310   2.260       .  S
In1299     O1304   2.267       .  S
In1299     O1306   2.274       .  S
In1299     O1307   2.263       .  S
In1299     O1308   2.256       .  S
In1299     O1311   2.212       .  S
C1300      O1306   1.268       .  A
C1300      O1308   1.260       .  A
C1300      C1316   1.480       .  S
O1301      C1309   1.263       .  A
O1302      C1309   1.267       .  A
C1303      O1310   1.264       .  A
C1303      O1304   1.270       .  A
C1305      O1307   1.268       .  A
C1305      O1311   1.258       .  A
C1305      C1339   1.464       .  S
C1309      C1391   1.480       .  S
In1312     O1314   2.228       .  S
In1312     O1315   2.269       .  S
In1312     O1323   2.263       .  S
In1312     O1317   2.283       .  S
In1312     O1319   2.290       .  S
In1312     O1320   2.214       .  S
In1312     O1321   2.269       .  S
In1312     O1324   2.246       .  S
C1313      O1319   1.265       .  A
C1313      O1321   1.259       .  A
O1314      C1322   1.257       .  A
O1315      C1322   1.258       .  A
C1316      O1323   1.256       .  A
C1316      O1317   1.265       .  A
C1318      O1320   1.262       .  A
C1318      O1324   1.266       .  A
C1322      C1331   1.461       .  S
In1325     O1327   2.220       .  S
In1325     O1328   2.244       .  S
In1325     O1336   2.264       .  S
In1325     O1330   2.265       .  S
In1325     O1332   2.276       .  S
In1325     O1333   2.264       .  S
In1325     O1334   2.252       .  S
In1325     O1337   2.206       .  S
C1326      O1332   1.269       .  A
C1326      O1334   1.259       .  A
O1327      C1335   1.262       .  A
O1328      C1335   1.267       .  A
C1329      O1336   1.264       .  A
C1329      O1330   1.268       .  A
C1329      C1348   1.483       .  S
C1331      O1333   1.267       .  A
C1331      O1337   1.258       .  A
C1335      C1463   1.475       .  S
In1338     O1340   2.263       .  S
In1338     O1341   2.288       .  S
In1338     O1349   2.245       .  S
In1338     O1343   2.216       .  S
In1338     O1345   2.268       .  S
In1338     O1346   2.282       .  S
In1338     O1347   2.235       .  S
In1338     O1350   2.266       .  S
C1339      O1345   1.258       .  A
C1339      O1347   1.258       .  A
O1340      C1348   1.258       .  A
O1341      C1348   1.265       .  A
C1342      C1368   1.461   1_455  S
C1344      O1346   1.265       .  A
C1344      O1350   1.257       .  A
In1351     O1353   2.228       .  S
In1351     O1354   2.250       .  S
In1351     O1362   2.264       .  S
In1351     O1356   2.266       .  S
In1351     O1358   2.280       .  S
In1351     O1359   2.272       .  S
In1351     O1360   2.252       .  S
In1351     O1363   2.206       .  S
C1352      O1358   1.269       .  A
C1352      O1360   1.259       .  A
C1352      C1370   1.481       .  S
O1353      C1361   1.264       .  A
O1354      C1361   1.266       .  A
C1355      O1362   1.264       .  A
C1355      O1356   1.268       .  A
C1357      O1359   1.267       .  A
C1357      O1363   1.258       .  A
C1361      C1451   1.470       .  S
In1364     O1366   2.262       .  S
In1364     O1367   2.286       .  S
In1364     O1375   2.243       .  S
In1364     O1369   2.222       .  S
In1364     O1371   2.283       .  S
In1364     O1372   2.275       .  S
In1364     O1373   2.225       .  S
In1364     O1376   2.268       .  S
C1365      O1371   1.262       .  A
C1365      O1373   1.258       .  A
O1366      C1374   1.259       .  A
O1367      C1374   1.266       .  A
C1368      O1375   1.265       .  A
C1368      O1369   1.264       .  A
C1370      O1372   1.266       .  A
C1370      O1376   1.259       .  A
C1377      C1378   1.538       .  S
C1377      C1383   1.523       .  S
C1377      C1381   1.532       .  S
C1377      C1668   1.525       .  S
C1378      H1385   1.086       .  S
C1378      C1379   1.371       .  D
C1379      C1380   1.538       .  S
C1380      C1384   1.557       .  S
C1380      C1382   1.538       .  S
C1380      H1386   1.107       .  S
C1381      H1387   1.087       .  S
C1381      C1382   1.348       .  D
C1382      C1691   1.474       .  S
C1383      H1388   1.078       .  S
C1383      C1384   1.367       .  D
C1384      C1678   1.492       .  S
C1389      C1390   1.552       .  S
C1389      C1395   1.507       .  S
C1389      C1393   1.539       .  S
C1389      C1648   1.524       .  S
C1390      H1397   1.082       .  S
C1390      C1391   1.382       .  D
C1391      C1392   1.549       .  S
C1392      C1396   1.542       .  S
C1392      C1394   1.545       .  S
C1392      H1398   1.109       .  S
C1393      H1399   1.086       .  S
C1393      C1394   1.365       .  D
C1394      C1688   1.498       .  S
C1395      H1400   1.090       .  S
C1395      C1396   1.343       .  D
C1396      C1658   1.469       .  S
C1401      C1402   1.541       .  S
C1401      C1407   1.508       .  S
C1401      C1405   1.544       .  S
C1401      C1681   1.515       .  S
C1402      H1409   1.087       .  S
C1402      C1403   1.358       .  D
C1403      C1638   1.487       .  S
C1403      C1404   1.534       .  S
C1404      C1408   1.533       .  S
C1404      C1406   1.547       .  S
C1404      H1410   1.110       .  S
C1405      H1411   1.084       .  S
C1405      C1406   1.382       .  D
C1406      C1479   1.466       .  S
C1407      H1412   1.090       .  S
C1407      C1408   1.345       .  D
C1408      C1671   1.452       .  S
C1413      C1414   1.524       .  S
C1413      C1419   1.519       .  S
C1413      C1417   1.549       .  S
C1413      C1651   1.528       .  S
C1414      H1421   1.087       .  S
C1414      C1415   1.368       .  D
C1415      C1509   1.479       .  S
C1415      C1416   1.558       .  S
C1416      C1420   1.558       .  S
C1416      C1418   1.530       .  S
C1416      H1422   1.110       .  S
C1417      H1423   1.087       .  S
C1417      C1418   1.358       .  D
C1418      C1641   1.477       .  S
C1419      H1424   1.080       .  S
C1419      C1420   1.362       .  D
C1420      C1661   1.495       .  S
C1425      C1426   1.549       .  S
C1425      C1431   1.524       .  S
C1425      C1429   1.527       .  S
C1425      C1621   1.525   1_556  S
C1426      H1433   1.086       .  S
C1426      C1427   1.356       .  D
C1427      C1628   1.477       .  S
C1427      C1428   1.532       .  S
C1428      C1432   1.548       .  S
C1428      C1430   1.541       .  S
C1428      H1434   1.110       .  S
C1429      H1435   1.086       .  S
C1429      C1430   1.367       .  D
C1430      C1557   1.464       .  S
C1431      H1436   1.083       .  S
C1431      C1432   1.359       .  D
C1432      C1611   1.482       .  S
C1437      C1438   1.547       .  S
C1437      C1443   1.512       .  S
C1437      C1441   1.540       .  S
C1437      C1591   1.522       .  S
C1438      H1445   1.080       .  S
C1438      C1439   1.377       .  D
C1439      C1535   1.477       .  S
C1439      C1440   1.550       .  S
C1440      C1444   1.537       .  S
C1440      C1442   1.532       .  S
C1440      H1446   1.110       .  S
C1441      H1447   1.086       .  S
C1441      C1442   1.363       .  D
C1442      C1631   1.489       .  S
C1443      H1448   1.089       .  S
C1443      C1444   1.352       .  D
C1444      C1598   1.464       .  S
C1449      C1450   1.539       .  S
C1449      C1455   1.511       .  S
C1449      C1453   1.538       .  S
C1449      C1608   1.515       .  S
C1450      H1457   1.086       .  S
C1450      C1451   1.379       .  D
C1451      C1452   1.554       .  S
C1452      C1456   1.543       .  S
C1452      C1454   1.533       .  S
C1452      H1458   1.111       .  S
C1453      H1459   1.086       .  S
C1453      C1454   1.358       .  D
C1454      C1578   1.473       .  S
C1455      H1460   1.091   1_565  S
C1455      C1456   1.341       .  D
C1456      C1618   1.466       .  S
C1461      C1462   1.526       .  S
C1461      C1467   1.524       .  S
C1461      C1465   1.555       .  S
C1461      C1588   1.527       .  S
C1462      H1469   1.087       .  S
C1462      C1463   1.366       .  D
C1463      C1464   1.549       .  S
C1464      C1468   1.546       .  S
C1464      C1466   1.541       .  S
C1464      H1470   1.110       .  S
C1465      H1471   1.084       .  S
C1465      C1466   1.368       .  D
C1466      C1581   1.490       .  S
C1467      H1472   1.085   1_565  S
C1467      C1468   1.351       .  D
C1468      C1601   1.482       .  S
In1473     O1475   2.198       .  S
In1473     O1476   2.271       .  S
In1473     O1484   2.264       .  S
In1473     O1478   2.264       .  S
In1473     O1480   2.268       .  S
In1473     O1481   2.246       .  S
In1473     O1482   2.247       .  S
In1473     O1485   2.211       .  S
C1474      O1480   1.268       .  A
C1474      O1482   1.259       .  A
C1474      C1487   1.476       .  S
O1475      C1483   1.258       .  A
O1476      C1483   1.268       .  A
C1477      O1484   1.264       .  A
C1477      O1478   1.268       .  A
C1479      O1481   1.267       .  A
C1479      O1485   1.263       .  A
C1483      C1574   1.462       .  S
In1486     O1488   2.217       .  S
In1486     O1489   2.261       .  S
In1486     O1497   2.260       .  S
In1486     O1491   2.284       .  S
In1486     O1493   2.276       .  S
In1486     O1494   2.207       .  S
In1486     O1495   2.257       .  S
In1486     O1498   2.240       .  S
C1487      O1493   1.266       .  A
C1487      O1495   1.256       .  A
O1488      C1496   1.257       .  A
O1489      C1496   1.259       .  A
C1490      O1497   1.259       .  A
C1490      O1491   1.266       .  A
C1492      O1494   1.262       .  A
C1492      O1498   1.266       .  A
C1492      C1516   1.457       .  S
C1496      C1561   1.457       .  S
In1499     O1501   2.247       .  S
In1499     O1502   2.245       .  S
In1499     O1510   2.253       .  S
In1499     O1504   2.266       .  S
In1499     O1506   2.282       .  S
In1499     O1507   2.269       .  S
In1499     O1508   2.263       .  S
In1499     O1511   2.211       .  S
C1500      O1506   1.268       .  A
C1500      O1508   1.260       .  A
C1500      C1518   1.485       .  S
O1501      C1509   1.264       .  A
O1502      C1509   1.267       .  A
C1503      O1510   1.262       .  A
C1503      O1504   1.269       .  A
C1505      O1507   1.267       .  A
C1505      O1511   1.257       .  A
C1505      C1548   1.463       .  S
In1512     O1514   2.262       .  S
In1512     O1515   2.279       .  S
In1512     O1523   2.238       .  S
In1512     O1517   2.213       .  S
In1512     O1519   2.282       .  S
In1512     O1520   2.284       .  S
In1512     O1521   2.223       .  S
In1512     O1524   2.272       .  S
C1513      O1519   1.261       .  A
C1513      O1521   1.258       .  A
C1513      C1531   1.466       .  S
O1514      C1522   1.258       .  A
O1515      C1522   1.266       .  A
C1516      O1523   1.265       .  A
C1516      O1517   1.263       .  A
C1518      O1520   1.265       .  A
C1518      O1524   1.259       .  A
In1525     O1527   2.219       .  S
In1525     O1528   2.261       .  S
In1525     O1536   2.257       .  S
In1525     O1530   2.267       .  S
In1525     O1532   2.275       .  S
In1525     O1533   2.277       .  S
In1525     O1534   2.268       .  S
In1525     O1537   2.202       .  S
C1526      O1532   1.267       .  A
C1526      O1534   1.262       .  A
O1527      C1535   1.263       .  A
O1528      C1535   1.268       .  A
C1529      O1536   1.263       .  A
C1529      O1530   1.269       .  A
C1529      C1539   1.482       .  S
C1531      O1533   1.269       .  A
C1531      O1537   1.258       .  A
In1538     O1540   2.228       .  S
In1538     O1541   2.272       .  S
In1538     O1549   2.269       .  S
In1538     O1543   2.290       .  S
In1538     O1545   2.285       .  S
In1538     O1546   2.218       .  S
In1538     O1547   2.267       .  S
In1538     O1550   2.241       .  S
C1539      O1545   1.265       .  A
C1539      O1547   1.257       .  A
O1540      C1548   1.257       .  A
O1541      C1548   1.259       .  A
C1542      O1549   1.258       .  A
C1542      O1543   1.265       .  A
C1544      C1570   1.459       .  S
In1551     O1553   2.201       .  S
In1551     O1554   2.258       .  S
In1551     O1562   2.264       .  S
In1551     O1556   2.261       .  S
In1551     O1558   2.274       .  S
In1551     O1559   2.236       .  S
In1551     O1560   2.249       .  S
In1551     O1563   2.215       .  S
C1552      O1558   1.269       .  A
C1552      O1560   1.259       .  A
O1553      C1561   1.258       .  A
O1554      C1561   1.267       .  A
C1555      O1562   1.264       .  A
C1555      O1556   1.268       .  A
C1555      C1568   1.483       .  S
C1557      O1559   1.266       .  A
C1557      O1563   1.263       .  A
In1564     O1566   2.215       .  S
In1564     O1567   2.278       .  S
In1564     O1575   2.261       .  S
In1564     O1569   2.287       .  S
In1564     O1571   2.274       .  S
In1564     O1572   2.218       .  S
In1564     O1573   2.261       .  S
In1564     O1576   2.237       .  S
C1565      O1571   1.266       .  A
C1565      O1573   1.258       .  A
O1566      C1574   1.256       .  A
O1567      C1574   1.261       .  A
C1568      O1575   1.259       .  A
C1568      O1569   1.265       .  A
C1570      O1572   1.264       .  A
C1570      O1576   1.266       .  A
C1577      C1578   1.401       .  A
C1577      F1584   1.358       .  S
C1578      C1579   1.402       .  A
C1579      F1586   1.358       .  S
C1580      C1581   1.413       .  A
C1580      F1585   1.358       .  S
C1581      C1582   1.406       .  A
C1582      F1583   1.351       .  S
C1587      C1592   1.387       .  A
C1587      F1594   1.358       .  S
C1588      C1589   1.414       .  A
C1589      C1590   1.400   1_565  A
C1589      F1596   1.358       .  S
C1590      F1595   1.354       .  S
C1591      C1592   1.423   1_545  A
C1592      F1593   1.359       .  S
C1597      C1598   1.408       .  A
C1597      C1602   1.402       .  A
C1597      F1604   1.357       .  S
C1598      C1599   1.398       .  A
C1599      C1600   1.388       .  A
C1599      F1606   1.359       .  S
C1600      C1601   1.411   1_545  A
C1600      F1605   1.359       .  S
C1601      C1602   1.405   1_565  A
C1602      F1603   1.357   1_545  S
C1607      C1608   1.409       .  A
C1607      C1612   1.393   1_565  A
C1607      F1614   1.356       .  S
C1608      C1609   1.425   1_565  A
C1609      C1610   1.384       .  A
C1609      F1616   1.357       .  S
C1610      C1611   1.398       .  A
C1610      F1615   1.354       .  S
C1611      C1612   1.409       .  A
C1612      F1613   1.359       .  S
C1617      C1618   1.410   1_545  A
C1617      F1624   1.359       .  S
C1618      C1619   1.397       .  A
C1619      F1626   1.358       .  S
C1620      C1621   1.417       .  A
C1620      F1625   1.358   1_554  S
C1621      C1622   1.402       .  A
C1622      F1623   1.359       .  S
C1627      C1628   1.405       .  A
C1627      C1632   1.392       .  A
C1627      F1634   1.359       .  S
C1628      C1629   1.400       .  A
C1629      C1630   1.402       .  A
C1629      F1636   1.357       .  S
C1637      C1638   1.410       .  A
C1637      C1642   1.390       .  A
C1637      F1644   1.358       .  S
C1638      C1639   1.408       .  A
C1639      C1640   1.403       .  A
C1639      F1646   1.356       .  S
C1640      C1641   1.403       .  A
C1640      F1645   1.356       .  S
C1641      C1642   1.403       .  A
C1642      F1643   1.359       .  S
C1647      C1648   1.425       .  A
C1647      C1652   1.385       .  A
C1647      F1654   1.360       .  S
C1648      C1649   1.406       .  A
C1649      C1650   1.403       .  A
C1649      F1656   1.354       .  S
C1650      C1651   1.415       .  A
C1650      F1655   1.357       .  S
C1651      C1652   1.395       .  A
C1652      F1653   1.359       .  S
C1657      C1658   1.405       .  A
C1657      C1662   1.404   1_556  A
C1657      F1664   1.358       .  S
C1659      C1660   1.390       .  A
C1659      F1666   1.359       .  S
C1660      C1661   1.412       .  A
C1660      F1665   1.359       .  S
C1662      F1663   1.354       .  S
C1667      C1668   1.416       .  A
C1667      F1674   1.357       .  S
C1669      C1670   1.387       .  A
C1670      C1671   1.402       .  A
C1670      F1675   1.355       .  S
C1671      C1672   1.399       .  A
C1672      F1673   1.359       .  S
C1677      C1678   1.399       .  A
C1677      C1682   1.380       .  A
C1677      F1684   1.354       .  S
C1678      C1679   1.421       .  A
C1679      C1680   1.401       .  A
C1679      F1686   1.359       .  S
C1680      C1681   1.400       .  A
C1680      F1685   1.355       .  S
C1681      C1682   1.420       .  A
C1682      F1683   1.360       .  S
C1687      C1688   1.411       .  A
C1687      C1692   1.400       .  A
C1687      F1694   1.352       .  S
C1688      C1689   1.412       .  A
C1689      C1690   1.398       .  A
C1689      F1696   1.358       .  S
C1690      C1691   1.406       .  A
C1690      F1695   1.359       .  S
C1691      C1692   1.399       .  A
C1692      F1693   1.357       .  S
