geometry optimzed in LAMMPS
_audit_creation_date              2020-11-30 
_audit_creation_method            'lammps2cif' 
_symmetry_space_group_name_H-M    'P1' 
_symmetry_Int_Tables_number       1 
_symmetry_cell_setting            triclinic 
loop_ 
_symmetry_equiv_pos_as_xyz 
  x,y,z 
_cell_length_a                    28.82359235996831 
_cell_length_b                    28.71639552412444 
_cell_length_c                    28.756123145471264 
_cell_angle_alpha                 89.9837599348757 
_cell_angle_beta                  90.32183554573336 
_cell_angle_gamma                 89.89538628947435 
loop_ 
_atom_site_label 
_atom_site_type_symbol 
_atom_site_fract_x 
_atom_site_fract_y 
_atom_site_fract_z 
_atom_site_charge 
O1          O  0.29996135  0.53255421  0.21568582    -0.82530
C2          C  0.10732570  0.49990053  0.19250890     0.96820
O3          O  0.13000283  0.53539688  0.18102528    -0.71650
O4          O  0.17582359  0.57401852  0.25102589    -0.75240
Al5        Al  0.19246644  0.55383597  0.18960261     1.48980
C6          C  0.20293487  0.57387950  0.28582774     0.92080
O7          O  0.22244967  0.45859492  0.29364614    -0.81460
O8          O  0.24751019  0.42234265  0.16512101    -0.75020
Al9        Al  0.25806183  0.49583057  0.25175355     1.90120
O10         O  0.19329673  0.41079913  0.24186767    -0.74090
O11         O  0.17985596  0.46928687  0.12470259    -0.73940
O12         O  0.12773062  0.46265435  0.20390770    -0.79600
O13         O  0.20709530  0.54032691  0.12662722    -0.77800
O14         O  0.21316684  0.49847431  0.20918980    -1.13940
O15         O  0.25014385  0.58521799  0.19334107    -0.73130
C16         C  0.29156560  0.57261701  0.19966298     0.97590
C17         C  0.20423842  0.42000786  0.28330955     0.93980
Al18       Al  0.18895813  0.44595605  0.18595951     1.55560
O19         O  0.23832997  0.54827254  0.28581486    -0.77750
C20         C  0.19412368  0.50510488  0.10381834     0.98150
C21         C  0.28350821  0.41931902  0.19012525     0.93030
O22         O  0.28731119  0.44311251  0.22673273    -0.83070
O23         O  0.71768570  0.45946929  0.21631771    -0.82530
C24         C  0.90805566  0.50573926  0.19430811     0.96820
O25         O  0.88858934  0.46740835  0.18613142    -0.71650
O26         O  0.84236287  0.42214766  0.25178319    -0.75240
Al27       Al  0.82693402  0.44503982  0.19020839     1.48980
C28         C  0.81364009  0.41984885  0.28475096     0.92080
O29         O  0.79199217  0.53627487  0.29522572    -0.81460
O30         O  0.76096028  0.57433682  0.16948688    -0.75020
Al31       Al  0.75742758  0.49833328  0.25292538     1.90120
O32         O  0.81859980  0.58631857  0.24429581    -0.74090
O33         O  0.82809389  0.53350333  0.12517233    -0.73940
O34         O  0.88488346  0.54230362  0.20078050    -0.79600
O35         O  0.81452690  0.45859310  0.12628897    -0.77800
O36         O  0.80214984  0.49904147  0.21004147    -1.13940
O37         O  0.77049981  0.41129372  0.19040670    -0.73130
C38         C  0.72872125  0.42041668  0.19908675     0.97590
C39         C  0.80989345  0.57516779  0.28570503     0.93980
Al40       Al  0.82153678  0.55389922  0.18707185     1.55560
O41         O  0.77949024  0.44687941  0.28545227    -0.77750
C42         C  0.81981478  0.49613318  0.10411614     0.98150
C43         C  0.72580275  0.57575856  0.19520648     0.93030
O44         O  0.72353852  0.55020475  0.23054202    -0.83070
O45         O  0.46705202  0.78492730  0.29720895    -0.82530
C46         C  0.50728215  0.80919610  0.10482029     0.96820
O47         O  0.47242540  0.82264293  0.12710837    -0.71650
O48         O  0.43029749  0.75415308  0.17051485    -0.75240
Al49       Al  0.45213664  0.81415706  0.18904724     1.48980
C50         C  0.42819989  0.71859751  0.19631616     0.92080
O51         O  0.54232075  0.70573845  0.22159401    -0.81460
O52         O  0.58379198  0.83019277  0.24906931    -0.75020
Al53       Al  0.50498456  0.74830504  0.25606540     1.90120
O54         O  0.59129513  0.75492345  0.19149785    -0.74090
O55         O  0.53970611  0.87616482  0.18253607    -0.73940
O56         O  0.54381321  0.79790685  0.12645920    -0.79600
O57         O  0.46737014  0.87641501  0.20534344    -0.77800
O58         O  0.50572788  0.79176531  0.21161196    -1.13940
O59         O  0.41845961  0.81115371  0.24512523    -0.73130
C60         C  0.42840165  0.80325142  0.28698914     0.97590
C61         C  0.58036161  0.71370379  0.20167350     0.93980
Al62       Al  0.55971186  0.81295844  0.18926505     1.55560
O63         O  0.45271592  0.71564986  0.23260495    -0.77750
C64         C  0.50394656  0.89814707  0.19526293     0.98150
C65         C  0.58415226  0.80537262  0.28535003     0.93030
O66         O  0.55735884  0.77102974  0.28866658    -0.83070
O67         O  0.54294576  0.21549084  0.29490392    -0.82530
C68         C  0.50183052  0.18906444  0.10323510     0.96820
O69         O  0.53914903  0.17936645  0.12407595    -0.71650
O70         O  0.58265528  0.24540367  0.17004080    -0.75240
Al71       Al  0.55987122  0.18537308  0.18678370     1.48980
C72         C  0.58469007  0.28067839  0.19602715     0.92080
O73         O  0.46857510  0.29204872  0.21617306    -0.81460
O74         O  0.42990972  0.16700258  0.24817514    -0.75020
Al75       Al  0.50573763  0.25107431  0.25289155     1.90120
O76         O  0.41855068  0.24154186  0.18951919    -0.74090
O77         O  0.47226618  0.12085250  0.18230712    -0.73940
O78         O  0.46512608  0.19735325  0.12521651    -0.79600
O79         O  0.54612159  0.12231450  0.20052475    -0.77800
O80         O  0.50577616  0.20667824  0.20920832    -1.13940
O81         O  0.59200244  0.18704718  0.24454563    -0.73130
C82         C  0.58118796  0.19603832  0.28603225     0.97590
C83         C  0.42974592  0.28323075  0.19767123     0.93980
Al84       Al  0.45159022  0.18373710  0.18811309     1.55560
O85         O  0.55865358  0.28398595  0.23086602    -0.77750
C86         C  0.50954352  0.09996078  0.19201829     0.98150
C87         C  0.42759395  0.19350240  0.28296752     0.93030
O88         O  0.45297354  0.22901891  0.28584412    -0.83070
O89         O  0.54048455  0.29212265  0.79169661    -0.82530
C90         C  0.50657629  0.09879745  0.81436501     0.96820
O91         O  0.54086974  0.12179097  0.82883930    -0.71650
O92         O  0.58315761  0.16707287  0.76171104    -0.75240
Al93       Al  0.55954986  0.18478942  0.82089542     1.48980
C94         C  0.58507199  0.19294822  0.72625261     0.92080
O95         O  0.46989483  0.21385852  0.71096573    -0.81460
O96         O  0.42697626  0.23868200  0.83588400    -0.75020
Al97       Al  0.50524380  0.24973157  0.75428104     1.90120
O98         O  0.42089085  0.18329110  0.75971816    -0.74090
O99         O  0.47204199  0.17235357  0.88086179    -0.73940
O100        O  0.47023151  0.11925601  0.80097666    -0.79600
O101        O  0.54253575  0.20093654  0.88237596    -0.77800
O102        O  0.50564338  0.20512345  0.79745007    -1.13940
O103        O  0.59109316  0.24245251  0.81855277    -0.73130
C104        C  0.57908660  0.28389162  0.81090261     0.97590
C105        C  0.43185034  0.19377823  0.71870834     0.93980
Al106      Al  0.45235801  0.18044767  0.81759108     1.55560
O107        O  0.55920813  0.22830179  0.72256290    -0.77750
C108        C  0.50642981  0.18805631  0.90320119     0.98150
C109        C  0.42456722  0.27468425  0.81087568     0.93030
O110        O  0.45117946  0.28016709  0.77663972    -0.83070
O111        O  0.71244515  0.20785969  0.54067650    -0.82530
C112        C  0.90455004  0.18873899  0.50039268     0.96820
O113        O  0.88359561  0.17618401  0.53669112    -0.71650
O114        O  0.83829142  0.24455834  0.57770020    -0.75240
Al115      Al  0.82118192  0.18344954  0.55776401     1.48980
C116        C  0.80979406  0.27778731  0.58065216     0.92080
O117        O  0.78528945  0.28815631  0.46673592    -0.81460
O118        O  0.76050226  0.16200774  0.42744589    -0.75020
Al119      Al  0.75189646  0.24544243  0.50376057     1.90120
O120        O  0.81525938  0.23869233  0.41697204    -0.74090
O121        O  0.82857546  0.11944259  0.47161591    -0.73940
O122        O  0.88162999  0.19884125  0.46442743    -0.79600
O123        O  0.80660674  0.12057173  0.54431556    -0.77800
O124        O  0.79757358  0.20352522  0.50368685    -1.13940
O125        O  0.76416984  0.18614712  0.59187956    -0.73130
C126        C  0.72219672  0.19242604  0.58054543     0.97590
C127        C  0.80373597  0.27947326  0.42805635     0.93980
Al128      Al  0.81974153  0.18159444  0.44998174     1.55560
O129        O  0.77335805  0.27863705  0.55636854    -0.77750
C130        C  0.81663488  0.09813518  0.50805975     0.98150
C131        C  0.72443807  0.18690617  0.42553314     0.93030
O132        O  0.72000197  0.22183817  0.45141912    -0.83070
O133        O  0.29816690  0.21252725  0.46607981    -0.82530
C134        C  0.10669606  0.18986817  0.50710906     0.96820
O135        O  0.12761904  0.17705781  0.47082275    -0.71650
O136        O  0.17169684  0.24443210  0.42754360    -0.75240
Al137      Al  0.18991158  0.18432902  0.44938923     1.48980
C138        C  0.19868509  0.27873738  0.42419931     0.92080
O139        O  0.22151635  0.29209326  0.53753474    -0.81460
O140        O  0.25148803  0.16654938  0.57868289    -0.75020
Al141      Al  0.25716108  0.24965229  0.50205002     1.90120
O142        O  0.19559721  0.24328866  0.58942874    -0.74090
O143        O  0.18345703  0.12203131  0.53724388    -0.73940
O144        O  0.12943990  0.20105046  0.54290419    -0.79600
O145        O  0.20526380  0.12173427  0.46419341    -0.77800
O146        O  0.21298434  0.20623868  0.50289432    -1.13940
O147        O  0.24710343  0.18701595  0.41581196    -0.73130
C148        C  0.28882611  0.19507397  0.42692144     0.97590
C149        C  0.20396650  0.28455751  0.57682595     0.93980
Al150      Al  0.19174865  0.18502920  0.55722284     1.55560
O151        O  0.23502819  0.28127256  0.44847021    -0.77750
C152        C  0.19490916  0.10033333  0.50094181     0.98150
C153        C  0.28681475  0.19228727  0.58061555     0.93030
O154        O  0.28976403  0.22801462  0.55543521    -0.83070
O155        O  0.29690885  0.46093733  0.79289242    -0.82530
C156        C  0.10408349  0.50107564  0.81283778     0.96820
O157        O  0.12622865  0.46554452  0.82575271    -0.71650
O158        O  0.17064749  0.42431630  0.75692692    -0.75240
Al159      Al  0.18843634  0.44503135  0.81769769     1.48980
C160        C  0.19781089  0.42199028  0.72265139     0.92080
O161        O  0.22249260  0.53555287  0.71208051    -0.81460
O162        O  0.24713075  0.57785063  0.83685725    -0.75020
Al163      Al  0.25633850  0.49857773  0.75520092     1.90120
O164        O  0.19092502  0.58562847  0.75994910    -0.74090
O165        O  0.18007538  0.53229550  0.88027566    -0.73940
O166        O  0.12537092  0.53741553  0.80083552    -0.79600
O167        O  0.20399411  0.45978216  0.87998197    -0.77800
O168        O  0.21094033  0.49918111  0.79684762    -1.13940
O169        O  0.24511852  0.41052402  0.81484211    -0.73130
C170        C  0.28703992  0.42107413  0.80851494     0.97590
C171        C  0.20264312  0.57403873  0.71946150     0.93980
Al172      Al  0.18772782  0.55333584  0.81770006     1.55560
O173        O  0.23444793  0.44593322  0.72209504    -0.77750
C174        C  0.19285538  0.49610733  0.90195698     0.98150
C175        C  0.28384461  0.57815934  0.81295981     0.93030
O176        O  0.28771164  0.55129983  0.77869075    -0.83070
O177        O  0.29982040  0.79172684  0.53524170    -0.82530
C178        C  0.10606818  0.80799271  0.50075442     0.96820
O179        O  0.12791289  0.81964837  0.53695704    -0.71650
O180        O  0.17664601  0.75191884  0.57788974    -0.75240
Al181      Al  0.19088405  0.81399134  0.55596839     1.48980
C182        C  0.20630602  0.71929735  0.57931246     0.92080
O183        O  0.22323587  0.71006674  0.46448912    -0.81460
O184        O  0.24569087  0.83653511  0.42336575    -0.75020
Al185      Al  0.25858847  0.75339760  0.49953111     1.90120
O186        O  0.19176052  0.75839817  0.41475997    -0.74090
O187        O  0.17903846  0.87847687  0.46941411    -0.73940
O188        O  0.12742896  0.79827323  0.46405931    -0.79600
O189        O  0.20349928  0.87730753  0.54183035    -0.77800
O190        O  0.21250221  0.79458596  0.50101674    -1.13940
O191        O  0.24866383  0.81273047  0.58716493    -0.73130
C192        C  0.29024983  0.80668647  0.57535556     0.97590
C193        C  0.20246141  0.71741451  0.42641549     0.93980
Al194      Al  0.18796179  0.81609914  0.44774715     1.55560
O195        O  0.24044772  0.72045769  0.55255529    -0.77750
C196        C  0.19229348  0.89954100  0.50564566     0.98150
C197        C  0.28172400  0.81187684  0.42056174     0.93030
O198        O  0.28720306  0.77668471  0.44591225    -0.83070
O199        O  0.71519230  0.78729924  0.46590790    -0.82530
C200        C  0.90530140  0.80722204  0.50998157     0.96820
O201        O  0.88436155  0.81833025  0.47315030    -0.71650
O202        O  0.84049295  0.75107560  0.42983723    -0.75240
Al203      Al  0.82324310  0.81177896  0.45083319     1.48980
C204        C  0.81256949  0.71756497  0.42570644     0.92080
O205        O  0.78868175  0.70517912  0.54016183    -0.81460
O206        O  0.75950201  0.83086572  0.57995805    -0.75020
Al207      Al  0.75432201  0.74837855  0.50278487     1.90120
O208        O  0.81643779  0.75497224  0.59063764    -0.74090
O209        O  0.82682297  0.87555751  0.53861595    -0.73940
O210        O  0.88259629  0.79787793  0.54606654    -0.79600
O211        O  0.80903221  0.87463025  0.46435186    -0.77800
O212        O  0.79920252  0.79098867  0.50430432    -1.13940
O213        O  0.76721356  0.81022847  0.41612272    -0.73130
C214        C  0.72541799  0.80563659  0.42729569     0.97590
C215        C  0.80754262  0.71360155  0.57915416     0.93980
Al216      Al  0.81966688  0.81291582  0.55890675     1.55560
O217        O  0.77614228  0.71592760  0.44953537    -0.77750
C218        C  0.81727689  0.89666948  0.50132581     0.98150
C219        C  0.72405702  0.80525327  0.58105635     0.93030
O220        O  0.72119769  0.77012756  0.55518141    -0.83070
O221        O  0.54073092  0.77908798  0.71023482    -0.82530
C222        C  0.50452782  0.81129439  0.90210729     0.96820
O223        O  0.54057384  0.82104336  0.87974497    -0.71650
O224        O  0.58080020  0.75296936  0.83523444    -0.75240
Al225      Al  0.55929455  0.81293275  0.81714979     1.48980
C226        C  0.58025188  0.71624762  0.81132330     0.92080
O227        O  0.46360051  0.70836946  0.79096935    -0.81460
O228        O  0.42805971  0.83280587  0.75734021    -0.75020
Al229      Al  0.50223321  0.74673670  0.75349160     1.90120
O230        O  0.41679753  0.76113489  0.81858457    -0.74090
O231        O  0.47322679  0.87899563  0.82154497    -0.73940
O232        O  0.46683380  0.80416740  0.88077240    -0.79600
O233        O  0.54651961  0.87574724  0.80200811    -0.77800
O234        O  0.50427913  0.79232929  0.79597021    -1.13940
O235        O  0.59016810  0.80914462  0.75944891    -0.73130
C236        C  0.57909466  0.79865669  0.71835532     0.97590
C237        C  0.42609464  0.71915924  0.81092437     0.93980
Al238      Al  0.45126793  0.81711548  0.81765669     1.55560
O239        O  0.55336873  0.71232589  0.77700997    -0.77750
C240        C  0.51035527  0.89872110  0.81028426     0.98150
C241        C  0.42614131  0.80641579  0.72234236     0.93030
O242        O  0.45081585  0.77042516  0.71988766    -0.83070
O243        O  0.71156865  0.53622547  0.79226142    -0.82530
C244        C  0.90388073  0.49209037  0.80881845     0.96820
O245        O  0.88344419  0.52853451  0.82192006    -0.71650
O246        O  0.83591873  0.57070879  0.75543217    -0.75240
Al247      Al  0.82105867  0.55009243  0.81686952     1.48980
C248        C  0.80878333  0.57139768  0.72069623     0.92080
O249        O  0.78148784  0.45734242  0.71253840    -0.81460
O250        O  0.76064448  0.42166559  0.84060340    -0.75020
Al251      Al  0.75004843  0.49670506  0.75568029     1.90120
O252        O  0.81195362  0.40813503  0.76224578    -0.74090
O253        O  0.83165185  0.46355548  0.87942963    -0.73940
O254        O  0.88132458  0.45580585  0.79874537    -0.79600
O255        O  0.80859711  0.53595287  0.88066012    -0.77800
O256        O  0.79683573  0.49633667  0.79680589    -1.13940
O257        O  0.76478925  0.58446178  0.81611734    -0.73130
C258        C  0.72276628  0.57534287  0.80868100     0.97590
C259        C  0.79978756  0.41848667  0.72148220     0.93980
Al260      Al  0.81948849  0.44225750  0.81826623     1.55560
O261        O  0.77232769  0.54743320  0.72060102    -0.77750
C262        C  0.82028087  0.49921176  0.90203056     0.98150
C263        C  0.72297898  0.42112255  0.81798924     0.93030
O264        O  0.71776748  0.44616018  0.78235981    -0.83070
C265        C  0.63978612  0.59837682  0.81862065    -0.21040
C266        C  0.68671552  0.61178109  0.81676516    -0.07610
C267        C  0.69765421  0.66010413  0.81846849     0.13260
C268        C  0.66168127  0.69294872  0.82085121    -0.21090
C269        C  0.61510527  0.67945452  0.81973592    -0.07610
C270        C  0.60387233  0.63160767  0.81952431     0.13250
C271        C  0.55411768  0.61552749  0.82028578    -0.24440
H272        H  0.63101083  0.56170941  0.81775949     0.14540
H273        H  0.66992792  0.72977995  0.82031838     0.14570
C274        C  0.74666938  0.67820540  0.81484586    -0.24390
H275        H  0.55162210  0.57699790  0.82250651     0.04780
H276        H  0.53582766  0.62663408  0.78810748     0.08000
H277        H  0.53625843  0.63056379  0.85094692     0.08000
H278        H  0.76253971  0.66622126  0.78180674     0.07990
H279        H  0.76760619  0.66603427  0.84498889     0.07990
H280        H  0.74792516  0.71686579  0.81488113     0.04760
C281        C  0.83868822  0.64596732  0.69000161    -0.21040
C282        C  0.81693618  0.60336975  0.68104710    -0.07610
C283        C  0.79872658  0.59481718  0.63591751     0.13260
C284        C  0.79900078  0.63061860  0.60267586    -0.21090
C285        C  0.81643410  0.67509352  0.61310154    -0.07610
C286        C  0.83854701  0.68204059  0.65704001     0.13250
C287        C  0.86134327  0.72725750  0.67074876    -0.24440
H288        H  0.85336460  0.65222288  0.72423462     0.14540
H289        H  0.78333938  0.62425165  0.56892269     0.14570
C290        C  0.77870038  0.54822166  0.62221114    -0.24390
H291        H  0.87937993  0.72471223  0.70489384     0.04780
H292        H  0.83512032  0.75524565  0.67385948     0.08000
H293        H  0.88758776  0.73688853  0.64460496     0.08000
H294        H  0.74563306  0.54185935  0.64066501     0.07990
H295        H  0.80393768  0.52009923  0.63040375     0.07990
H296        H  0.77088599  0.54652384  0.58438104     0.04760
C297        C  0.64017175  0.80622045  0.60039735    -0.21040
C298        C  0.68628198  0.81346490  0.61479559    -0.07610
C299        C  0.69581240  0.82047092  0.66243502     0.13260
C300        C  0.65956724  0.81763651  0.69457073    -0.21090
C301        C  0.61367132  0.80737885  0.68081150    -0.07610
C302        C  0.60365062  0.80341761  0.63262095     0.13250
C303        C  0.55502403  0.79595282  0.61459151    -0.24440
H304        H  0.63297277  0.80103927  0.56371026     0.14540
H305        H  0.66790662  0.82129138  0.73117265     0.14570
C306        C  0.74459955  0.82748381  0.68014955    -0.24390
H307        H  0.55358133  0.79664760  0.57598683     0.04780
H308        H  0.53190632  0.82399383  0.62760367     0.08000
H309        H  0.54190685  0.76150264  0.62592398     0.08000
H310        H  0.75931887  0.85983774  0.66521489     0.07990
H311        H  0.76629226  0.79726643  0.67010166     0.07990
H312        H  0.74597883  0.83060054  0.71863016     0.04760
C313        C  0.03335690  0.79713784  0.54461636    -0.21040
C314        C  0.05488208  0.80626088  0.50192456    -0.07610
C315        C  0.02715183  0.81542140  0.46226842     0.13260
C316        C  0.97886274  0.81498185  0.46651853    -0.20730
C317        C  0.95694511  0.80583978  0.50923181    -0.07610
C318        C  0.98492770  0.79659584  0.54888224     0.13250
C319        C  0.96468721  0.78554175  0.59570072    -0.24440
H320        H  0.05470825  0.79001429  0.57499244     0.14540
H321        H  0.95811049  0.82221320  0.43579316     0.14570
C322        C  0.04773666  0.82740927  0.41561720    -0.24390
H323        H  0.99195175  0.77955208  0.62250163     0.04780
H324        H  0.94403635  0.75316731  0.59282351     0.08000
H325        H  0.94271590  0.81486657  0.60783689     0.08000
H326        H  0.06743820  0.79726017  0.40186269     0.07990
H327        H  0.07097125  0.85803024  0.41912140     0.07990
H328        H  0.02062230  0.83624826  0.38946025     0.04760
C329        C  0.31328797  0.79915931  0.65710359    -0.21040
C330        C  0.32624254  0.81197684  0.61186968    -0.07610
C331        C  0.37219335  0.82698367  0.60368500     0.13260
C332        C  0.40422380  0.82752369  0.64099980    -0.21090
C333        C  0.39093217  0.81373975  0.68588393    -0.07610
C334        C  0.34500405  0.79938454  0.69385656     0.13250
C335        C  0.32988808  0.78180259  0.74069180    -0.24440
H336        H  0.27836405  0.78680909  0.66351443     0.14540
H337        H  0.43990591  0.83759757  0.63498815     0.14570
C338        C  0.38733365  0.84281100  0.55623290    -0.24390
H339        H  0.29271011  0.77169141  0.74091233     0.04780
H340        H  0.33504756  0.80950958  0.76706996     0.08000
H341        H  0.35059906  0.75059549  0.75021271     0.08000
H342        H  0.36463099  0.87169523  0.54407315     0.07990
H343        H  0.38530446  0.81346171  0.53124053     0.07990
H344        H  0.42369783  0.85553700  0.55667508     0.04760
C345        C  0.97905793  0.47840993  0.84785263    -0.21040
C346        C  0.95499502  0.49219701  0.80772368    -0.07610
C347        C  0.97974264  0.51047677  0.76966949     0.13260
C348        C  0.02842531  0.51389748  0.77235422    -0.21090
C349        C  0.05270869  0.49932617  0.81229219    -0.07610
C350        C  0.02760259  0.48172402  0.85069258     0.13250
C351        C  0.05159294  0.46817777  0.89548780    -0.24440
H352        H  0.95961593  0.46574289  0.87741417     0.14540
H353        H  0.04763764  0.52737844  0.74301183     0.14570
C354        C  0.95465891  0.52633343  0.72639011    -0.24390
H355        H  0.02634903  0.45832287  0.92280916     0.04780
H356        H  0.07236805  0.49794197  0.90875843     0.08000
H357        H  0.07467418  0.43780997  0.88974006     0.08000
H358        H  0.93041230  0.55508109  0.73504103     0.07990
H359        H  0.93467245  0.49686459  0.71137369     0.07990
H360        H  0.97912690  0.53915417  0.69959380     0.04760
C361        C  0.40192374  0.63692170  0.80830676    -0.21040
C362        C  0.39131169  0.68235506  0.82190959    -0.07610
C363        C  0.34683372  0.69116218  0.84164290     0.13260
C364        C  0.31283561  0.65577417  0.84093214    -0.21090
C365        C  0.32240684  0.61168604  0.82224998    -0.07610
C366        C  0.36853121  0.60188268  0.80837034     0.13250
C367        C  0.38380506  0.55389867  0.79545140    -0.24440
H368        H  0.43637439  0.62879826  0.79568884     0.14540
H369        H  0.27811078  0.66324617  0.85318568     0.14570
C370        C  0.33453767  0.73711415  0.86378749    -0.24390
H371        H  0.42212079  0.55078392  0.79269829     0.04780
H372        H  0.36873293  0.54318777  0.76158414     0.08000
H373        H  0.37224560  0.53096938  0.82375003     0.08000
H374        H  0.33387865  0.76527433  0.83756353     0.07990
H375        H  0.36018211  0.74551387  0.89147802     0.07990
H376        H  0.29967929  0.73618029  0.88003890     0.04760
C377        C  0.23819965  0.61330525  0.65343475    -0.21040
C378        C  0.19902228  0.60829411  0.68119895    -0.07610
C379        C  0.16091662  0.63876371  0.67461390     0.13260
C380        C  0.16343419  0.67386469  0.64031460    -0.21090
C381        C  0.20354360  0.67986295  0.61320591    -0.07610
C382        C  0.24171201  0.64876869  0.62043709     0.13250
C383        C  0.28763440  0.65285770  0.59550451    -0.24440
H384        H  0.26765231  0.59040207  0.65933952     0.14540
H385        H  0.13421289  0.69718935  0.63525827     0.14570
C386        C  0.11744963  0.63389731  0.70303557    -0.24390
H387        H  0.31330849  0.62654452  0.60756368     0.04780
H388        H  0.30320583  0.68759982  0.60220612     0.08000
H389        H  0.28268759  0.64708831  0.55764377     0.08000
H390        H  0.12508635  0.64088372  0.74022906     0.07990
H391        H  0.10341874  0.59809358  0.69927272     0.07990
H392        H  0.09018096  0.65885448  0.69165114     0.04760
C393        C  0.23294448  0.02493215  0.51891225    -0.21040
C394        C  0.19439886  0.04912863  0.50132994    -0.07610
C395        C  0.15519053  0.02429484  0.48564601     0.13260
C396        C  0.15552908  0.97544678  0.48739334    -0.21090
C397        C  0.19386104  0.95099433  0.50537032    -0.07610
C398        C  0.23322547  0.97599454  0.52106805     0.13250
C399        C  0.27610920  0.95122084  0.53845726    -0.24440
H400        H  0.26288663  0.04443077  0.53087713     0.14540
H401        H  0.12547530  0.95621903  0.47526962     0.14570
C402        C  0.11281939  0.04949824  0.46769959    -0.24390
H403        H  0.30436724  0.97606392  0.54707392     0.04780
H404        H  0.28907314  0.92705462  0.51128791     0.08000
H405        H  0.26808130  0.93122038  0.57041652     0.08000
H406        H  0.12213102  0.07090898  0.43700285     0.07990
H407        H  0.09884130  0.07260541  0.49527170     0.07990
H408        H  0.08501138  0.02489497  0.45712550     0.04760
C409        C  0.16959128  0.31432123  0.65051222    -0.21040
C410        C  0.19522166  0.32360236  0.60992603    -0.07610
C411        C  0.21525329  0.36838786  0.60453898     0.13260
C412        C  0.21140055  0.40088714  0.64064341    -0.21090
C413        C  0.18951647  0.39003577  0.68280998    -0.07610
C414        C  0.16677084  0.34668782  0.68712013     0.13250
C415        C  0.14171562  0.33308176  0.73090921    -0.24440
H416        H  0.15334493  0.28058741  0.65467684     0.14540
H417        H  0.22800845  0.43451101  0.63682565     0.14570
C418        C  0.24309655  0.38205580  0.56239770    -0.24390
H419        H  0.12653935  0.29764704  0.72830465     0.04780
H420        H  0.11290972  0.35789250  0.73749114     0.08000
H421        H  0.16622436  0.33319043  0.76083515     0.08000
H422        H  0.22113572  0.37997059  0.53072586     0.07990
H423        H  0.27376196  0.35888787  0.55897939     0.07990
H424        H  0.25619992  0.41833440  0.56481279     0.04760
C425        C  0.83892214  0.02325073  0.47124939    -0.21040
C426        C  0.81553036  0.04631913  0.50747241    -0.07610
C427        C  0.79164176  0.01933995  0.54105880     0.13260
C428        C  0.79267609  0.97055279  0.53776815    -0.21090
C429        C  0.81604707  0.94796845  0.50155901    -0.07610
C430        C  0.83942685  0.97458054  0.46782495     0.13250
C431        C  0.86649325  0.95187431  0.42920344    -0.24440
H432        H  0.85750242  0.04336866  0.44549885     0.14540
H433        H  0.77479272  0.94973596  0.56350717     0.14570
C434        C  0.76421017  0.04113129  0.57995266    -0.24390
H435        H  0.88464635  0.97795725  0.40737082     0.04780
H436        H  0.84272783  0.93196610  0.40617794     0.08000
H437        H  0.89304024  0.92800694  0.44412645     0.08000
H438        H  0.73740483  0.06491658  0.56537603     0.07990
H439        H  0.78770813  0.06062570  0.60361031     0.07990
H440        H  0.74612899  0.01453128  0.60122319     0.04760
C441        C  0.97944353  0.18690206  0.54399412    -0.21040
C442        C  0.95638047  0.19103894  0.50087851    -0.07610
C443        C  0.98347397  0.19605034  0.46009032     0.13260
C444        C  0.03212070  0.19606713  0.46374228    -0.21090
C445        C  0.05502257  0.19149867  0.50679465    -0.07610
C446        C  0.02806755  0.18706279  0.54759012     0.13250
C447        C  0.04984641  0.18100935  0.59504121    -0.24440
H448        H  0.95927529  0.18326537  0.57546240     0.14540
H449        H  0.05254685  0.19972121  0.43242644     0.14570
C450        C  0.96206152  0.20066541  0.41230930    -0.24390
H451        H  0.02338487  0.17574475  0.62246918     0.04780
H452        H  0.06993477  0.21258407  0.60451026     0.08000
H453        H  0.07297015  0.15003775  0.59512033     0.08000
H454        H  0.94060315  0.23275596  0.41041467     0.07990
H455        H  0.94044324  0.16964607  0.40449244     0.07990
H456        H  0.98875847  0.20323443  0.38472312     0.04760
C457        C  0.83552528  0.38794447  0.64878832    -0.21040
C458        C  0.80359508  0.38258273  0.68519794    -0.07610
C459        C  0.77648934  0.34160724  0.68762462     0.13260
C460        C  0.78242086  0.30693107  0.65438484    -0.21090
C461        C  0.81360564  0.31230855  0.61785979    -0.07610
C462        C  0.84056619  0.35306617  0.61463114     0.13250
C463        C  0.87355001  0.35988217  0.57487488    -0.24440
H464        H  0.85624656  0.41933323  0.64703816     0.14540
H465        H  0.76084671  0.27602130  0.65582564     0.14570
C466        C  0.73924303  0.33372173  0.72324578    -0.24390
H467        H  0.89196662  0.39373619  0.57745217     0.04780
H468        H  0.85413090  0.35911443  0.54142279     0.08000
H469        H  0.89980836  0.33154166  0.57497965     0.08000
H470        H  0.73480644  0.36354632  0.74675465     0.07990
H471        H  0.74775673  0.30240099  0.74427151     0.07990
H472        H  0.70544845  0.32799204  0.70542582     0.04760
C473        C  0.48609417  0.02371961  0.77720387    -0.21040
C474        C  0.50912859  0.04745379  0.81324756    -0.07610
C475        C  0.53350649  0.02166874  0.84767345     0.13260
C476        C  0.53461825  0.97299533  0.84467167    -0.21090
C477        C  0.51145012  0.94962623  0.80884084    -0.07610
C478        C  0.48687901  0.97496837  0.77469549     0.13250
C479        C  0.46191068  0.95055953  0.73553120    -0.24440
H480        H  0.46749039  0.04341486  0.75083019     0.14540
H481        H  0.55258144  0.95286706  0.87118067     0.14570
C482        C  0.55657282  0.04475599  0.88885092    -0.24390
H483        H  0.44559247  0.97569137  0.71102013     0.04780
H484        H  0.43413917  0.92806528  0.74974281     0.08000
H485        H  0.48679708  0.92875030  0.71574532     0.08000
H486        H  0.53100915  0.06670003  0.90757469     0.07990
H487        H  0.58605606  0.06649143  0.87715136     0.07990
H488        H  0.57061622  0.01882289  0.91392519     0.04760
C489        C  0.40379217  0.35713481  0.81969535    -0.21040
C490        C  0.38932682  0.31082529  0.81958945    -0.07610
C491        C  0.34144772  0.30072145  0.82037896     0.13260
C492        C  0.30920787  0.33753415  0.81900649    -0.21090
C493        C  0.32349639  0.38443573  0.81641559    -0.07610
C494        C  0.37177381  0.39386215  0.81854633     0.13250
C495        C  0.39040920  0.44220871  0.81997095    -0.24440
H496        H  0.44068259  0.36455421  0.81926866     0.14540
H497        H  0.27254936  0.32927174  0.81778651     0.14570
C498        C  0.32421902  0.25124210  0.81963083    -0.24390
H499        H  0.42872817  0.44307449  0.82431124     0.04780
H500        H  0.37495048  0.46019529  0.85030747     0.08000
H501        H  0.38208387  0.45973484  0.78664361     0.08000
H502        H  0.33659128  0.23258590  0.85115250     0.07990
H503        H  0.33732305  0.23327842  0.78818028     0.07990
H504        H  0.28572898  0.24954444  0.81894164     0.04760
C505        C  0.35123960  0.17588307  0.69417248    -0.21040
C506        C  0.39726822  0.18540089  0.68086058    -0.07610
C507        C  0.40721978  0.19022106  0.63284986     0.13260
C508        C  0.37052891  0.18914080  0.60039805    -0.21090
C509        C  0.32436113  0.18310758  0.61449716    -0.07610
C510        C  0.31471752  0.17539259  0.66188103     0.13250
C511        C  0.26569798  0.17010905  0.67924234    -0.24440
H512        H  0.34306660  0.17120548  0.73053660     0.14540
H513        H  0.37765985  0.19477241  0.56388424     0.14570
C514        C  0.45593690  0.19677725  0.61521993    -0.24390
H515        H  0.26447783  0.16634050  0.71765653     0.04780
H516        H  0.24962101  0.13859929  0.66376432     0.08000
H517        H  0.24493589  0.20133938  0.66968623     0.08000
H518        H  0.47845272  0.16804240  0.62804553     0.07990
H519        H  0.46993108  0.23077548  0.62698019     0.07990
H520        H  0.45718135  0.19652545  0.57661689     0.04760
C521        C  0.65801340  0.30862443  0.83620975    -0.21040
C522        C  0.61280019  0.32177458  0.82229645    -0.07610
C523        C  0.60284241  0.36985051  0.81696372     0.13260
C524        C  0.63922537  0.40226385  0.82026361    -0.21090
C525        C  0.68512662  0.38827797  0.82947952    -0.07610
C526        C  0.69414653  0.34109670  0.84000330     0.13250
C527        C  0.74221772  0.32407027  0.85235668    -0.24440
H528        H  0.66602857  0.27219025  0.84199601     0.14540
H529        H  0.63222816  0.43871235  0.81317638     0.14570
C530        C  0.55454171  0.38760527  0.80702838    -0.24390
H531        H  0.74299154  0.28589067  0.85850772     0.04780
H532        H  0.75434157  0.34146620  0.88465464     0.08000
H533        H  0.76672824  0.33175586  0.82376527     0.08000
H534        H  0.53042818  0.37498508  0.83424280     0.07990
H535        H  0.54267630  0.37569982  0.77226409     0.07990
H536        H  0.55308535  0.42626365  0.80702973     0.04760
C537        C  0.60488068  0.18856248  0.64261770    -0.21040
C538        C  0.61926577  0.18403252  0.68907103    -0.07610
C539        C  0.66683898  0.17760267  0.69908429     0.13260
C540        C  0.69895067  0.17777304  0.66254272    -0.21090
C541        C  0.68512002  0.18500031  0.61598223    -0.07610
C542        C  0.63691556  0.18892132  0.60589292     0.13250
C543        C  0.61845934  0.19424409  0.55697701    -0.24440
H544        H  0.56824908  0.19343421  0.63518284     0.14540
H545        H  0.73551740  0.17449720  0.67095036     0.14570
C546        C  0.68436085  0.17375555  0.74844983    -0.24390
H547        H  0.57993056  0.19376238  0.55588263     0.04780
H548        H  0.63103080  0.16506795  0.53503709     0.08000
H549        H  0.62965368  0.22802914  0.54208715     0.08000
H550        H  0.66955734  0.14233613  0.76519298     0.07990
H551        H  0.67420885  0.20524240  0.76840868     0.07990
H552        H  0.72275363  0.17071433  0.75004751     0.04760
C553        C  0.49006737  0.14984450  0.97834072    -0.21040
C554        C  0.50458091  0.18979338  0.95439867    -0.07610
C555        C  0.51637522  0.23038496  0.97963181     0.13260
C556        C  0.51460554  0.22955387  0.02846100    -0.21090
C557        C  0.50111301  0.18922317  0.05220168    -0.07610
C558        C  0.48857920  0.14900928  0.02707021     0.13250
C559        C  0.47423866  0.10510407  0.05178147    -0.24440
H560        H  0.48067956  0.11899927  0.95888427     0.14540
H561        H  0.52386517  0.26029176  0.04818709     0.14570
C562        C  0.52927437  0.27494130  0.95520000    -0.24390
H563        H  0.46591487  0.07667043  0.02694846     0.04780
H564        H  0.44303551  0.11200810  0.07317427     0.08000
H565        H  0.50283016  0.09301936  0.07478934     0.08000
H566        H  0.50086105  0.28548921  0.93112325     0.07990
H567        H  0.56170346  0.26997954  0.93519385     0.07990
H568        H  0.53513228  0.30382451  0.98021695     0.04760
C569        C  0.40670988  0.18641298  0.36634271    -0.21040
C570        C  0.39269501  0.18550395  0.31956356    -0.07610
C571        C  0.34494027  0.18372295  0.30863832     0.13260
C572        C  0.31237907  0.18422182  0.34468813    -0.21090
C573        C  0.32597516  0.18746075  0.39170460    -0.07610
C574        C  0.37411201  0.18713314  0.40264010     0.13250
C575        C  0.39175927  0.18777701  0.45210493    -0.24440
H576        H  0.44347210  0.18798345  0.37443187     0.14540
H577        H  0.27581083  0.18453481  0.33568296     0.14570
C578        C  0.32795038  0.18465076  0.25893591    -0.24390
H579        H  0.43008189  0.18388584  0.45382065     0.04780
H580        H  0.37626910  0.15852372  0.47191499     0.08000
H581        H  0.38297650  0.22138544  0.46893270     0.08000
H582        H  0.34073716  0.15345897  0.24015950     0.07990
H583        H  0.34060945  0.21660466  0.24137531     0.07990
H584        H  0.28946855  0.18469931  0.25671610     0.04760
C585        C  0.66253085  0.18048724  0.30991357    -0.21040
C586        C  0.61592548  0.18624008  0.32338185    -0.07610
C587        C  0.60511979  0.18532853  0.37143381     0.13260
C588        C  0.64133507  0.18160988  0.40423032    -0.21090
C589        C  0.68789487  0.17859201  0.39043621    -0.07610
C590        C  0.69854807  0.17728205  0.34266764     0.13250
C591        C  0.74803392  0.17624456  0.32590851    -0.24440
H592        H  0.67140451  0.18112009  0.27335733     0.14540
H593        H  0.63349007  0.18309658  0.44102623     0.14570
C594        C  0.55594836  0.18864275  0.38875637    -0.24390
H595        H  0.75005093  0.17669065  0.28735037     0.04780
H596        H  0.76549823  0.14409140  0.33838562     0.08000
H597        H  0.76693620  0.20723929  0.33913119     0.08000
H598        H  0.53451813  0.16087509  0.37255166     0.07990
H599        H  0.54108897  0.22332196  0.38037173     0.07990
H600        H  0.55412204  0.18425336  0.42708566     0.04760
C601        C  0.53703176  0.97283921  0.16736881    -0.21040
C602        C  0.50525241  0.94998172  0.19645371    -0.07610
C603        C  0.47616870  0.97714943  0.22543437     0.13260
C604        C  0.47861487  0.02603194  0.22312806    -0.21090
C605        C  0.50986536  0.04855470  0.19344014    -0.07610
C606        C  0.53962899  0.02155582  0.16528165     0.13250
C607        C  0.57334048  0.04250524  0.13125071    -0.24440
H608        H  0.55948907  0.95253981  0.14501100     0.14540
H609        H  0.45618687  0.04695043  0.24494168     0.14570
C610        C  0.44351515  0.95524373  0.25987991    -0.24390
H611        H  0.60922121  0.03204952  0.14088984     0.04780
H612        H  0.57190817  0.08096312  0.12973089     0.08000
H613        H  0.56554433  0.02933434  0.09575061     0.08000
H614        H  0.46307210  0.93149609  0.28339859     0.07990
H615        H  0.41598730  0.93556757  0.24133687     0.07990
H616        H  0.42608713  0.98183105  0.28176588     0.04760
C617        C  0.46441764  0.81175118  0.97840421    -0.21040
C618        C  0.50630424  0.80905827  0.95393142    -0.07610
C619        C  0.54835983  0.80407960  0.97956588     0.13260
C620        C  0.54716918  0.80366113  0.02840615    -0.21090
C621        C  0.50539802  0.80792091  0.05292185    -0.07610
C622        C  0.46317313  0.81119389  0.02719953     0.13250
C623        C  0.41624320  0.81351114  0.05017722    -0.24440
H624        H  0.43210495  0.81495644  0.95914875     0.14540
H625        H  0.57949605  0.80053771  0.04763715     0.14570
C626        C  0.59483303  0.79828104  0.95632467    -0.24390
H627        H  0.38742933  0.81328088  0.02436706     0.04780
H628        H  0.41297529  0.84621668  0.07045513     0.08000
H629        H  0.41150723  0.78285534  0.07319104     0.08000
H630        H  0.60381563  0.83028770  0.93674398     0.07990
H631        H  0.59390218  0.76782454  0.93256270     0.07990
H632        H  0.62317215  0.79216071  0.98194744     0.04760
C633        C  0.64334345  0.80220786  0.40386664    -0.21040
C634        C  0.68812201  0.81718978  0.39313502    -0.07610
C635        C  0.69618919  0.83653937  0.34820325     0.13260
C636        C  0.66127505  0.83340012  0.31390182    -0.21090
C637        C  0.61779350  0.81411734  0.32384402    -0.07610
C638        C  0.60845772  0.80043028  0.37018391     0.13250
C639        C  0.56127593  0.78529540  0.38519031    -0.24440
H640        H  0.63582321  0.78945634  0.43848809     0.14540
H641        H  0.66844145  0.84544072  0.27892801     0.14570
C642        C  0.74025378  0.86125948  0.33470061    -0.24390
H643        H  0.55822480  0.78250787  0.42359247     0.04780
H644        H  0.55224985  0.75093750  0.37015032     0.08000
H645        H  0.53714025  0.81237300  0.37304489     0.08000
H646        H  0.76148002  0.87231090  0.36484033     0.07990
H647        H  0.73137232  0.89394128  0.31597746     0.07990
H648        H  0.76096903  0.83890828  0.31111279     0.04760
C649        C  0.36404936  0.81858938  0.40226407    -0.21040
C650        C  0.31821944  0.82158491  0.38657170    -0.07610
C651        C  0.30895196  0.82359603  0.33848875     0.13260
C652        C  0.34599544  0.81990913  0.30717743    -0.21090
C653        C  0.39214883  0.81336632  0.32270291    -0.07610
C654        C  0.40097856  0.81463397  0.37119163     0.13250
C655        C  0.44884710  0.81251917  0.39100984    -0.24440
H656        H  0.37074838  0.81726571  0.43939548     0.14540
H657        H  0.33828440  0.81979652  0.27028187     0.14570
C658        C  0.25996848  0.82634791  0.32009507    -0.24390
H659        H  0.44929957  0.81594938  0.42949767     0.04780
H660        H  0.46862549  0.84218887  0.37652102     0.08000
H661        H  0.46470170  0.77840067  0.38249626     0.08000
H662        H  0.24319098  0.85877190  0.33266616     0.07990
H663        H  0.23983403  0.79576837  0.33220889     0.07990
H664        H  0.25891535  0.82668041  0.28148258     0.04760
C665        C  0.83888429  0.46023065  0.02839609    -0.21040
C666        C  0.81780445  0.49668453  0.05264313    -0.07610
C667        C  0.79696549  0.53365240  0.02735902     0.13260
C668        C  0.79850339  0.53337641  0.97854656    -0.21090
C669        C  0.82036350  0.49728609  0.95394979    -0.07610
C670        C  0.84087315  0.45997526  0.97962385     0.13250
C671        C  0.86588190  0.41990625  0.95672476    -0.24440
H672        H  0.85498046  0.43215521  0.04795502     0.14540
H673        H  0.78220519  0.56164205  0.95947456     0.14570
C674        C  0.77174501  0.57287746  0.05136381    -0.24390
H675        H  0.88135490  0.39563414  0.98261139     0.04780
H676        H  0.89461380  0.43328370  0.93493334     0.08000
H677        H  0.84124738  0.39933695  0.93522928     0.08000
H678        H  0.79643437  0.59395571  0.07222650     0.07990
H679        H  0.74437417  0.55850168  0.07425229     0.07990
H680        H  0.75474316  0.59676314  0.02608548     0.04760
C681        C  0.77146267  0.37109820  0.34046436    -0.21040
C682        C  0.81476801  0.38331775  0.32153855    -0.07610
C683        C  0.85503712  0.36038595  0.33831444     0.13260
C684        C  0.85086675  0.32680250  0.37374158    -0.21090
C685        C  0.80761911  0.31641429  0.39316458    -0.07610
C686        C  0.76736466  0.33819698  0.37577519     0.13250
C687        C  0.71959792  0.32529296  0.39269231    -0.24440
H688        H  0.73993537  0.38691403  0.32699168     0.14540
H689        H  0.88147986  0.30891036  0.38677166     0.14570
C690        C  0.90234837  0.37222377  0.32085474    -0.24390
H691        H  0.69189543  0.34501539  0.37423811     0.04780
H692        H  0.71646596  0.33302563  0.43033391     0.08000
H693        H  0.71335275  0.28768675  0.38646026     0.08000
H694        H  0.90910825  0.40931703  0.32882903     0.07990
H695        H  0.90429302  0.36539991  0.28294836     0.07990
H696        H  0.92983740  0.35119619  0.33816350     0.04760
C697        C  0.64626126  0.39762071  0.18865608    -0.21040
C698        C  0.69284536  0.38387104  0.19140060    -0.07610
C699        C  0.70347174  0.33534794  0.19116648     0.13260
C700        C  0.66723567  0.30266022  0.18879998    -0.21090
C701        C  0.62074115  0.31670907  0.18871771    -0.07610
C702        C  0.61035776  0.36475484  0.18820043     0.13250
C703        C  0.56133692  0.38156901  0.18848277    -0.24440
H704        H  0.63771055  0.43440163  0.18881132     0.14540
H705        H  0.67515088  0.26574391  0.19012574     0.14570
C706        C  0.75236376  0.31710099  0.19638392    -0.24390
H707        H  0.55889933  0.42006542  0.18544346     0.04780
H708        H  0.54555318  0.37135195  0.22201779     0.08000
H709        H  0.54215701  0.36583424  0.15881090     0.08000
H710        H  0.76797501  0.33021623  0.22926337     0.07990
H711        H  0.77359821  0.32809975  0.16626515     0.07990
H712        H  0.75344541  0.27845469  0.19773657     0.04760
C713        C  0.64212701  0.59542943  0.19796501    -0.21040
C714        C  0.68743884  0.60915742  0.18666667    -0.07610
C715        C  0.69582900  0.65611172  0.17493178     0.13260
C716        C  0.65938948  0.68847014  0.17763093    -0.21090
C717        C  0.61458097  0.67561087  0.19236430    -0.07610
C718        C  0.60555090  0.62777244  0.20080173     0.13250
C719        C  0.55803462  0.61013029  0.21349119    -0.24440
H720        H  0.63571886  0.55922635  0.20648380     0.14540
H721        H  0.66684531  0.72467679  0.17024215     0.14570
C722        C  0.74365835  0.67310823  0.16248240    -0.24390
H723        H  0.55723047  0.57154402  0.21611390     0.04780
H724        H  0.53255231  0.62060197  0.18633752     0.08000
H725        H  0.54750427  0.62417297  0.24779631     0.08000
H726        H  0.75572104  0.65534066  0.13047910     0.07990
H727        H  0.76824155  0.66588863  0.19145736     0.07990
H728        H  0.74413444  0.71119080  0.15576292     0.04760
C729        C  0.83874477  0.63931404  0.39843671    -0.21040
C730        C  0.81842323  0.68275803  0.38866792    -0.07610
C731        C  0.79756332  0.69057762  0.34486507     0.13260
C732        C  0.79712944  0.65497874  0.31190312    -0.21090
C733        C  0.81579422  0.61104687  0.32186522    -0.07610
C734        C  0.83769158  0.60311919  0.36524596     0.13250
C735        C  0.86043067  0.55712658  0.37608221    -0.24440
H736        H  0.85424850  0.63337742  0.43233501     0.14540
H737        H  0.78011504  0.66084734  0.27870104     0.14570
C738        C  0.77365692  0.73580861  0.33342286    -0.24390
H739        H  0.87736811  0.55740919  0.41086583     0.04780
H740        H  0.88736526  0.54946775  0.34966451     0.08000
H741        H  0.83416924  0.52893607  0.37576967     0.08000
H742        H  0.79848552  0.76502193  0.33739242     0.07990
H743        H  0.74386205  0.74068736  0.35712133     0.07990
H744        H  0.75997826  0.73641527  0.29723732     0.04760
C745        C  0.98267367  0.52667303  0.15818941    -0.21040
C746        C  0.95894967  0.50721388  0.19574408    -0.07610
C747        C  0.98399211  0.48577933  0.23209635     0.13260
C748        C  0.03242129  0.48349273  0.23005813    -0.21090
C749        C  0.05635265  0.50263949  0.19246558    -0.07610
C750        C  0.03126664  0.52457612  0.15593826     0.13250
C751        C  0.05521848  0.54391006  0.11360387    -0.24440
H752        H  0.96300069  0.54241577  0.12999972     0.14540
H753        H  0.05172491  0.46698013  0.25806514     0.14570
C754        C  0.95932528  0.46488948  0.27270100    -0.24390
H755        H  0.02992551  0.55659155  0.08719608     0.04780
H756        H  0.07674740  0.51638441  0.09720127     0.08000
H757        H  0.07751565  0.57379322  0.12348540     0.08000
H758        H  0.93647554  0.43697529  0.25942221     0.07990
H759        H  0.93811697  0.49186537  0.29035667     0.07990
H760        H  0.98380251  0.44956720  0.29847929     0.04760
C761        C  0.19504772  0.54093015  0.97584308    -0.21040
C762        C  0.19452460  0.49722178  0.95367162    -0.07610
C763        C  0.19438673  0.45643414  0.98141416     0.13260
C764        C  0.19500053  0.46068254  0.02997285    -0.21090
C765        C  0.19537492  0.50435866  0.05214133    -0.07610
C766        C  0.19536142  0.54513297  0.02448351     0.13250
C767        C  0.19437513  0.59323868  0.04548982    -0.24440
H768        H  0.19514936  0.57233830  0.95492646     0.14540
H769        H  0.19509839  0.42925354  0.05087992     0.14570
C770        C  0.19232622  0.40817664  0.96072904    -0.24390
H771        H  0.19230544  0.62080541  0.01845599     0.04780
H772        H  0.22653042  0.59938475  0.06597241     0.08000
H773        H  0.16353782  0.59696747  0.06818707     0.08000
H774        H  0.22410171  0.40119757  0.94023601     0.07990
H775        H  0.16107905  0.40486488  0.93820925     0.07990
H776        H  0.19020983  0.38079712  0.98792504     0.04760
C777        C  0.36566452  0.39983807  0.19784219    -0.21040
C778        C  0.32236790  0.38723526  0.17964875    -0.07610
C779        C  0.31680082  0.34234913  0.16037346     0.13260
C780        C  0.35331950  0.30982925  0.16476322    -0.21090
C781        C  0.39541880  0.32121379  0.18748904    -0.07610
C782        C  0.40172205  0.36778016  0.20267144     0.13250
C783        C  0.44591387  0.38495786  0.22420532    -0.24440
H784        H  0.37059515  0.43494142  0.21085082     0.14540
H785        H  0.34820895  0.27484184  0.15165642     0.14570
C786        C  0.27251863  0.32812545  0.13627384    -0.24390
H787        H  0.44451086  0.42250263  0.23342002     0.04780
H788        H  0.47298956  0.38077501  0.19783340     0.08000
H789        H  0.45417930  0.36545284  0.25651426     0.08000
H790        H  0.26621037  0.35119177  0.10590263     0.07990
H791        H  0.24276058  0.33076313  0.16030138     0.07990
H792        H  0.27424090  0.29167447  0.12348388     0.04760
C793        C  0.17491681  0.39166920  0.36002957    -0.21040
C794        C  0.19933196  0.38309362  0.31873175    -0.07610
C795        C  0.22021245  0.33897034  0.31175411     0.13260
C796        C  0.21621357  0.30468696  0.34592487    -0.21090
C797        C  0.19242550  0.31327893  0.38717365    -0.07610
C798        C  0.17117505  0.35692365  0.39447205     0.13250
C799        C  0.14515020  0.36664240  0.43861026    -0.24440
H800        H  0.15903633  0.42546573  0.36535396     0.14540
H801        H  0.23354653  0.27144270  0.34135676     0.14570
C802        C  0.24902195  0.32843482  0.26949260    -0.24390
H803        H  0.13062568  0.40248721  0.43898579     0.04780
H804        H  0.16872252  0.36268697  0.46894122     0.08000
H805        H  0.11606431  0.34158316  0.44201420     0.08000
H806        H  0.27775446  0.35393738  0.26690370     0.07990
H807        H  0.22684903  0.33008118  0.23802690     0.07990
H808        H  0.26464817  0.29306115  0.27094897     0.04760
C809        C  0.40920863  0.63441112  0.19459769    -0.21040
C810        C  0.39492342  0.68057692  0.18676898    -0.07610
C811        C  0.34766657  0.68985679  0.17786350     0.13260
C812        C  0.31566774  0.65319752  0.17948305    -0.21090
C813        C  0.32917416  0.60725501  0.19073374    -0.07610
C814        C  0.37716119  0.59753659  0.19643488     0.13250
C815        C  0.39518824  0.54900051  0.20533750    -0.24440
H816        H  0.44563984  0.62747971  0.20128545     0.14540
H817        H  0.27928043  0.66130253  0.17419216     0.14570
C818        C  0.33015215  0.73878728  0.17005541    -0.24390
H819        H  0.43370932  0.54795233  0.20638569     0.04780
H820        H  0.38349830  0.52532928  0.17708666     0.08000
H821        H  0.38266579  0.53609632  0.23939172     0.08000
H822        H  0.34613227  0.75359702  0.13831701     0.07990
H823        H  0.33897477  0.76087916  0.20052433     0.07990
H824        H  0.29190356  0.73987061  0.16528909     0.04760
C825        C  0.21973414  0.63681073  0.40137267    -0.21040
C826        C  0.19443552  0.67789207  0.39372769    -0.07610
C827        C  0.16557301  0.68085221  0.35362499     0.13260
C828        C  0.16676288  0.64487928  0.32038269    -0.21090
C829        C  0.19594243  0.60601181  0.32592172    -0.07610
C830        C  0.22107793  0.60101322  0.36838027     0.13250
C831        C  0.25028885  0.55868892  0.37968854    -0.24440
H832        H  0.24083065  0.63347303  0.43253651     0.14540
H833        H  0.14637222  0.64834409  0.28876951     0.14570
C834        C  0.13339139  0.72147376  0.34524307    -0.24390
H835        H  0.26310540  0.55918039  0.41618774     0.04780
H836        H  0.28140646  0.55752801  0.35716488     0.08000
H837        H  0.22935819  0.52657199  0.37520639     0.08000
H838        H  0.15355824  0.75366614  0.33883032     0.07990
H839        H  0.11051493  0.72623397  0.37581633     0.07990
H840        H  0.11082166  0.71581514  0.31433017     0.04760
loop_ 
_geom_bond_atom_site_label_1 
_geom_bond_atom_site_label_2 
_geom_bond_distance 
_geom_bond_site_symmetry_2 
_ccdc_geom_bond_type 
O1           C16   1.262       .  A
O1           Al9   1.914       .  S
C2           O12   1.262       .  A
C2            O3   1.257       .  A
C2          C749   1.471       .  S
O3           Al5   1.892       .  S
O4            C6   1.266       .  A
O4           Al5   1.922       .  S
Al5          O13   1.902       .  S
Al5          O15   1.895       .  S
Al5          O14   1.787       .  S
C6           O19   1.257       .  A
C6          C829   1.491       .  S
O7           C17   1.262       .  A
O7           Al9   1.915       .  S
O8           C21   1.262       .  A
O8          Al18   1.917       .  S
Al9          O22   1.877       .  S
Al9          O19   1.885       .  S
Al9          O14   1.778       .  S
O10          C17   1.259       .  A
O10         Al18   1.902       .  S
O11          C20   1.262       .  A
O11         Al18   1.901       .  S
O12         Al18   1.902       .  S
O13          C20   1.262       .  A
O14         Al18   1.791       .  S
O15          C16   1.259       .  A
C16         C813   1.496       .  S
C17         C794   1.477       .  S
C20         C765   1.487       .  S
C21          O22   1.260       .  A
C21         C778   1.481       .  S
O23          C38   1.267       .  A
O23         Al31   1.913       .  S
C24          O34   1.258       .  A
C24          O25   1.258       .  A
C24         C746   1.468       .  S
O25         Al27   1.895       .  S
O26          C28   1.264       .  A
O26         Al27   1.938       .  S
Al27         O35   1.910       .  S
Al27         O37   1.895       .  S
Al27         O36   1.800       .  S
C28          O41   1.253       .  A
C28         C682   1.490       .  S
O29          C39   1.262       .  A
O29         Al31   1.911       .  S
O30          C43   1.259       .  A
O30         Al40   1.907       .  S
Al31         O44   1.891       .  S
Al31         O41   1.858       .  S
Al31         O36   1.789       .  S
O32          C39   1.260       .  A
O32         Al40   1.893       .  S
O33          C42   1.255       .  A
O33         Al40   1.884       .  S
O34         Al40   1.895       .  S
O35          C42   1.262       .  A
O36         Al40   1.799       .  S
O37          C38   1.258       .  A
C38         C698   1.490       .  S
C39         C733   1.473       .  S
C42         C666   1.481       .  S
C43          O44   1.255       .  A
C43         C714   1.482       .  S
O45          C60   1.264       .  A
O45         Al53   1.927       .  S
C46          O56   1.262       .  A
C46          O47   1.255       .  A
C46         C621   1.494       .  S
O47         Al49   1.894       .  S
O48          C50   1.264       .  A
O48         Al49   1.911       .  S
Al49         O57   1.900       .  S
Al49         O59   1.889       .  S
Al49         O58   1.790       .  S
C50          O63   1.260       .  A
C50         C810   1.479       .  S
O51          C61   1.261       .  A
O51         Al53   1.909       .  S
O52          C65   1.263       .  A
O52         Al62   1.916       .  S
Al53         O66   1.890       .  S
Al53         O63   1.897       .  S
Al53         O58   1.787       .  S
O54          C61   1.260       .  A
O54         Al62   1.898       .  S
O55          C64   1.264       .  A
O55         Al62   1.913       .  S
O56         Al62   1.911       .  S
O57          C64   1.261       .  A
O58         Al62   1.794       .  S
O59          C60   1.256       .  A
C60         C653   1.497       .  S
C61         C717   1.497       .  S
C64         C602   1.489       .  S
C65          O66   1.258       .  A
C65         C637   1.489       .  S
O67          C82   1.262       .  A
O67         Al75   1.906       .  S
C68          O78   1.258       .  A
C68          O69   1.259       .  A
C68         C557   1.468       .  S
O69         Al71   1.904       .  S
O70          C72   1.260       .  A
O70         Al71   1.908       .  S
Al71         O79   1.896       .  S
Al71         O81   1.898       .  S
Al71         O80   1.797       .  S
C72          O85   1.259       .  A
C72         C701   1.483       .  S
O73          C83   1.263       .  A
O73         Al75   1.905       .  S
O74          C87   1.259       .  A
O74         Al84   1.902       .  S
Al75         O88   1.906       .  S
Al75         O85   1.907       .  S
Al75         O80   1.790       .  S
O76          C83   1.262       .  A
O76         Al84   1.913       .  S
O77          C86   1.260       .  A
O77         Al84   1.908       .  S
O78         Al84   1.893       .  S
O79          C86   1.258       .  A
O80         Al84   1.799       .  S
O81          C82   1.261       .  A
C82         C586   1.491       .  S
C83         C781   1.499       .  S
C86         C605   1.477       .  S
C87          O88   1.259       .  A
C87         C570   1.478       .  S
O89         C104   1.261       .  A
O89         Al97   1.914       .  S
C90         O100   1.259       .  A
C90          O91   1.259       .  A
C90         C474   1.476       .  S
O91         Al93   1.903       .  S
O92          C94   1.263       .  A
O92         Al93   1.905       .  S
Al93        O101   1.895       .  S
Al93        O103   1.892       .  S
Al93        O102   1.787       .  S
C94         O107   1.263       .  A
C94         C538   1.480       .  S
O95         C105   1.261       .  A
O95         Al97   1.908       .  S
O96         C109   1.261       .  A
O96        Al106   1.900       .  S
Al97        O110   1.901       .  S
Al97        O107   1.909       .  S
Al97        O102   1.784       .  S
O98         C105   1.259       .  A
O98        Al106   1.893       .  S
O99         C108   1.262       .  A
O99        Al106   1.917       .  S
O100       Al106   1.892       .  S
O101        C108   1.260       .  A
O102       Al106   1.792       .  S
O103        C104   1.258       .  A
C104        C522   1.495       .  S
C105        C506   1.492       .  S
C108        C554   1.474       .  S
C109        O110   1.261       .  A
C109        C490   1.473       .  S
O111        C126   1.259       .  A
O111       Al119   1.898       .  S
C112        O122   1.258       .  A
C112        O113   1.262       .  A
C112        C442   1.496       .  S
O113       Al115   1.913       .  S
O114        C116   1.261       .  A
O114       Al115   1.911       .  S
Al115       O123   1.894       .  S
Al115       O125   1.920       .  S
Al115       O124   1.789       .  S
C116        O129   1.258       .  A
C116        C461   1.463       .  S
O117        C127   1.260       .  A
O117       Al119   1.892       .  S
O118        C131   1.262       .  A
O118       Al128   1.909       .  S
Al119       O132   1.886       .  S
Al119       O129   1.890       .  S
Al119       O124   1.782       .  S
O120        C127   1.258       .  A
O120       Al128   1.898       .  S
O121        C130   1.263       .  A
O121       Al128   1.906       .  S
O122       Al128   1.896       .  S
O123        C130   1.260       .  A
O124       Al128   1.789       .  S
O125        C126   1.264       .  A
C126        C541   1.496       .  S
C127        C685   1.465       .  S
C130        C426   1.488       .  S
C131        O132   1.256       .  A
C131        C589   1.475       .  S
O133        C148   1.261       .  A
O133       Al141   1.901       .  S
C134        O144   1.259       .  A
C134        O135   1.263       .  A
C134        C445   1.490       .  S
O135       Al137   1.913       .  S
O136        C138   1.260       .  A
O136       Al137   1.908       .  S
Al137       O145   1.898       .  S
Al137       O147   1.917       .  S
Al137       O146   1.788       .  S
C138        O151   1.258       .  A
C138        C797   1.465       .  S
O139        C149   1.259       .  A
O139       Al141   1.895       .  S
O140        C153   1.260       .  A
O140       Al150   1.901       .  S
Al141       O154   1.899       .  S
Al141       O151   1.895       .  S
Al141       O146   1.784       .  S
O142        C149   1.263       .  A
O142       Al150   1.916       .  S
O143        C152   1.261       .  A
O143       Al150   1.913       .  S
O144       Al150   1.896       .  S
O145        C152   1.260       .  A
O146       Al150   1.788       .  S
O147        C148   1.264       .  A
C148        C573   1.494       .  S
C149        C410   1.493       .  S
C152        C394   1.471       .  S
C153        O154   1.259       .  A
C153        C509   1.475       .  S
O155        C170   1.263       .  A
O155       Al163   1.921       .  S
C156        O166   1.261       .  A
C156        O157   1.257       .  A
C156        C349   1.482       .  S
O157       Al159   1.902       .  S
O158        C160   1.264       .  A
O158       Al159   1.914       .  S
Al159       O167   1.892       .  S
Al159       O169   1.911       .  S
Al159       O168   1.790       .  S
C160        O173   1.261       .  A
C160        C413   1.487       .  S
O161        C171   1.262       .  A
O161       Al163   1.897       .  S
O162        C175   1.265       .  A
O162       Al172   1.930       .  S
Al163       O176   1.888       .  S
Al163       O173   1.894       .  S
Al163       O168   1.779       .  S
O164        C171   1.259       .  A
O164       Al172   1.905       .  S
O165        C174   1.265       .  A
O165       Al172   1.912       .  S
O166       Al172   1.915       .  S
O167        C174   1.262       .  A
O168       Al172   1.796       .  S
O169        C170   1.260       .  A
C170        C493   1.502       .  S
C171        C378   1.479       .  S
C174        C762   1.488       .  S
C175        O176   1.257       .  A
C175        C365   1.495       .  S
O177        C192   1.263       .  A
O177       Al185   1.916       .  S
C178        O188   1.256       .  A
C178        O179   1.259       .  A
C178        C314   1.477       .  S
O179       Al181   1.899       .  S
O180        C182   1.268       .  A
O180       Al181   1.936       .  S
Al181       O189   1.899       .  S
Al181       O191   1.888       .  S
Al181       O190   1.791       .  S
C182        O195   1.253       .  A
C182        C381   1.496       .  S
O183        C193   1.262       .  A
O183       Al185   1.896       .  S
O184        C197   1.259       .  A
O184       Al194   1.903       .  S
Al185       O198   1.876       .  S
Al185       O195   1.872       .  S
Al185       O190   1.778       .  S
O186        C193   1.261       .  A
O186       Al194   1.913       .  S
O187        C196   1.263       .  A
O187       Al194   1.914       .  S
O188       Al194   1.881       .  S
O189        C196   1.261       .  A
O190       Al194   1.793       .  S
O191        C192   1.259       .  A
C192        C330   1.480       .  S
C193        C826   1.491       .  S
C196        C397   1.478       .  S
C197        O198   1.255       .  A
C197        C650   1.467       .  S
O199        C214   1.265       .  A
O199       Al207   1.904       .  S
C200        O210   1.259       .  A
C200        O201   1.257       .  A
C200        C317   1.489       .  S
O201       Al203   1.881       .  S
O202        C204   1.261       .  A
O202       Al203   1.911       .  S
Al203       O211   1.891       .  S
Al203       O213   1.894       .  S
Al203       O212   1.793       .  S
C204        O217   1.258       .  A
C204        C730   1.471       .  S
O205        C215   1.267       .  A
O205       Al207   1.913       .  S
O206        C219   1.260       .  A
O206       Al216   1.910       .  S
Al207       O220   1.894       .  S
Al207       O217   1.902       .  S
Al207       O212   1.783       .  S
O208        C215   1.260       .  A
O208       Al216   1.900       .  S
O209        C218   1.260       .  A
O209       Al216   1.903       .  S
O210       Al216   1.902       .  S
O211        C218   1.259       .  A
O212       Al216   1.789       .  S
O213        C214   1.256       .  A
C214        C634   1.489       .  S
C215        C285   1.496       .  S
C218        C429   1.474       .  S
C219        O220   1.256       .  A
C219        C298   1.481       .  S
O221        C236   1.262       .  A
O221       Al229   1.913       .  S
C222        O232   1.262       .  A
C222        O223   1.257       .  A
C222        C618   1.492       .  S
O223       Al225   1.896       .  S
O224        C226   1.259       .  A
O224       Al225   1.900       .  S
Al225       O233   1.891       .  S
Al225       O235   1.890       .  S
Al225       O234   1.797       .  S
C226        O239   1.256       .  A
C226        C269   1.476       .  S
O227        C237   1.265       .  A
O227       Al229   1.906       .  S
O228        C241   1.261       .  A
O228       Al238   1.909       .  S
Al229       O242   1.890       .  S
Al229       O239   1.895       .  S
Al229       O234   1.792       .  S
O230        C237   1.254       .  A
O230       Al238   1.892       .  S
O231        C240   1.256       .  A
O231       Al238   1.891       .  S
O232       Al238   1.904       .  S
O233        C240   1.257       .  A
O234       Al238   1.799       .  S
O235        C236   1.259       .  A
C236        C301   1.495       .  S
C237        C362   1.493       .  S
C240        C477   1.463       .  S
C241        O242   1.256       .  A
C241        C333   1.470       .  S
O243        C258   1.260       .  A
O243       Al251   1.906       .  S
C244        O254   1.262       .  A
C244        O245   1.259       .  A
C244        C346   1.474       .  S
O245       Al247   1.905       .  S
O246        C248   1.265       .  A
O246       Al247   1.914       .  S
Al247       O255   1.915       .  S
Al247       O257   1.897       .  S
Al247       O256   1.790       .  S
C248        O261   1.257       .  A
C248        C282   1.484       .  S
O249        C259   1.259       .  A
O249       Al251   1.910       .  S
O250        C263   1.263       .  A
O250       Al260   1.912       .  S
Al251       O264   1.890       .  S
Al251       O261   1.887       .  S
Al251       O256   1.789       .  S
O252        C259   1.257       .  A
O252       Al260   1.897       .  S
O253        C262   1.257       .  A
O253       Al260   1.893       .  S
O254       Al260   1.912       .  S
O255        C262   1.265       .  A
O256       Al260   1.792       .  S
O257        C258   1.257       .  A
C258        C266   1.493       .  S
C259        C458   1.471       .  S
C262        C669   1.494       .  S
C263        O264   1.260       .  A
C263        C525   1.482       .  S
C265        C266   1.408       .  A
C265        C270   1.407       .  A
C265        H272   1.084       .  S
C266        C267   1.424       .  A
C267        C268   1.402       .  A
C267        C274   1.510       .  S
C268        C269   1.398       .  A
C268        H273   1.085       .  S
C269        C270   1.412       .  A
C270        C271   1.508       .  S
C271        H275   1.111       .  S
C271        H276   1.109       .  S
C271        H277   1.111       .  S
C274        H278   1.111       .  S
C274        H279   1.109       .  S
C274        H280   1.111       .  S
C281        C282   1.399       .  A
C281        C286   1.404       .  A
C281        H288   1.084       .  S
C282        C283   1.419       .  A
C283        C284   1.404       .  A
C283        C290   1.510       .  S
C284        C285   1.405       .  A
C284        H289   1.084       .  S
C285        C286   1.426       .  A
C286        C287   1.508       .  S
C287        H291   1.111       .  S
C287        H292   1.106       .  S
C287        H293   1.105       .  S
C290        H294   1.109       .  S
C290        H295   1.110       .  S
C290        H296   1.111       .  S
C297        C298   1.406       .  A
C297        C302   1.409       .  A
C297        H304   1.084       .  S
C298        C299   1.410       .  A
C299        C300   1.401       .  A
C299        C306   1.507       .  S
C300        C301   1.410       .  A
C300        H305   1.083       .  S
C301        C302   1.419       .  A
C302        C303   1.507       .  S
C303        H307   1.111       .  S
C303        H308   1.111       .  S
C303        H309   1.109       .  S
C306        H310   1.109       .  S
C306        H311   1.108       .  S
C306        H312   1.111       .  S
C313        C314   1.403       .  A
C313        C318   1.402   1_455  A
C313        H320   1.085       .  S
C314        C315   1.413       .  A
C315        C316   1.398   1_455  A
C315        C322   1.510       .  S
C316        C317   1.409       .  A
C316        H321   1.084       .  S
C317        C318   1.418       .  A
C318        C319   1.504       .  S
C319        H323   1.111       .  S
C319        H324   1.108       .  S
C319        H325   1.110       .  S
C322        H326   1.109       .  S
C322        H327   1.111       .  S
C322        H328   1.111       .  S
C329        C330   1.404       .  A
C329        C334   1.394       .  A
C329        H336   1.085       .  S
C330        C331   1.415       .  A
C331        C332   1.412       .  A
C331        C338   1.505       .  S
C332        C333   1.405       .  A
C332        H337   1.084       .  S
C333        C334   1.407       .  A
C334        C335   1.505       .  S
C335        H339   1.111       .  S
C335        H340   1.109       .  S
C335        H341   1.109       .  S
C338        H342   1.111       .  S
C338        H343   1.109       .  S
C338        H344   1.111       .  S
C345        C346   1.400       .  A
C345        C350   1.405   1_655  A
C345        H352   1.084       .  S
C346        C347   1.411       .  A
C347        C348   1.409   1_655  A
C347        C354   1.506       .  S
C348        C349   1.405       .  A
C348        H353   1.084       .  S
C349        C350   1.417       .  A
C350        C351   1.509       .  S
C351        H355   1.111       .  S
C351        H356   1.111       .  S
C351        H357   1.109       .  S
C354        H358   1.110       .  S
C354        H359   1.111       .  S
C354        H360   1.111       .  S
C361        C362   1.396       .  A
C361        C366   1.394       .  A
C361        H368   1.084       .  S
C362        C363   1.427       .  A
C363        C364   1.413       .  A
C363        C370   1.508       .  S
C364        C365   1.403       .  A
C364        H369   1.084       .  S
C365        C366   1.418       .  A
C366        C367   1.493       .  S
C367        H371   1.111       .  S
C367        H372   1.108       .  S
C367        H373   1.100       .  S
C370        H374   1.106       .  S
C370        H375   1.110       .  S
C370        H376   1.111       .  S
C377        C378   1.394       .  A
C377        C382   1.396       .  A
C377        H384   1.086       .  S
C378        C379   1.415       .  A
C379        C380   1.412       .  A
C379        C386   1.506       .  S
C380        C381   1.409       .  A
C380        H385   1.084       .  S
C381        C382   1.430       .  A
C382        C383   1.514       .  S
C383        H387   1.111       .  S
C383        H388   1.111       .  S
C383        H389   1.110       .  S
C386        H390   1.109       .  S
C386        H391   1.111       .  S
C386        H392   1.111       .  S
C393        C394   1.401       .  A
C393        C398   1.407   1_545  A
C393        H400   1.084       .  S
C394        C395   1.409       .  A
C395        C396   1.404   1_545  A
C395        C402   1.507       .  S
C396        C397   1.404       .  A
C396        H401   1.084       .  S
C397        C398   1.416       .  A
C398        C399   1.508       .  S
C399        H403   1.111       .  S
C399        H404   1.111       .  S
C399        H405   1.109       .  S
C402        H406   1.110       .  S
C402        H407   1.111       .  S
C402        H408   1.111       .  S
C409        C410   1.410       .  A
C409        C414   1.407       .  A
C409        H416   1.084       .  S
C410        C411   1.419       .  A
C411        C412   1.401       .  A
C411        C418   1.509       .  S
C412        C413   1.405       .  A
C412        H417   1.084       .  S
C413        C414   1.414       .  A
C414        C415   1.507       .  S
C415        H419   1.111       .  S
C415        H420   1.110       .  S
C415        H421   1.110       .  S
C418        H422   1.108       .  S
C418        H423   1.110       .  S
C418        H424   1.111       .  S
C425        C426   1.409       .  A
C425        C430   1.401   1_545  A
C425        H432   1.084       .  S
C426        C427   1.420       .  A
C427        C428   1.404   1_545  A
C427        C434   1.509       .  S
C428        C429   1.402       .  A
C428        H433   1.084       .  S
C429        C430   1.410       .  A
C430        C431   1.508       .  S
C431        H435   1.111       .  S
C431        H436   1.110       .  S
C431        H437   1.111       .  S
C434        H438   1.111       .  S
C434        H439   1.110       .  S
C434        H440   1.111       .  S
C441        C442   1.408       .  A
C441        C446   1.405   1_655  A
C441        H448   1.083       .  S
C442        C443   1.420       .  A
C443        C444   1.406   1_655  A
C443        C450   1.509       .  S
C444        C445   1.406       .  A
C444        H449   1.084       .  S
C445        C446   1.417       .  A
C446        C447   1.509       .  S
C447        H451   1.111       .  S
C447        H452   1.110       .  S
C447        H453   1.110       .  S
C450        H454   1.110       .  S
C450        H455   1.110       .  S
C450        H456   1.111       .  S
C457        C458   1.406       .  A
C457        C462   1.411       .  A
C457        H464   1.084       .  S
C458        C459   1.416       .  A
C459        C460   1.391       .  A
C459        C466   1.505       .  S
C460        C461   1.395       .  A
C460        H465   1.086       .  S
C461        C462   1.409       .  A
C462        C463   1.504       .  S
C463        H467   1.111       .  S
C463        H468   1.110       .  S
C463        H469   1.110       .  S
C466        H470   1.099       .  S
C466        H471   1.110       .  S
C466        H472   1.111       .  S
C473        C474   1.405       .  A
C473        C478   1.402   1_545  A
C473        H480   1.085       .  S
C474        C475   1.418       .  A
C475        C476   1.401   1_545  A
C475        C482   1.509       .  S
C476        C477   1.397       .  A
C476        H481   1.085       .  S
C477        C478   1.409       .  A
C478        C479   1.507       .  S
C479        H483   1.111       .  S
C479        H484   1.109       .  S
C479        H485   1.111       .  S
C482        H486   1.110       .  S
C482        H487   1.109       .  S
C482        H488   1.111       .  S
C489        C490   1.394       .  A
C489        C494   1.400       .  A
C489        H496   1.085       .  S
C490        C491   1.411       .  A
C491        C492   1.407       .  A
C491        C498   1.506       .  S
C492        C493   1.411       .  A
C492        H497   1.084       .  S
C493        C494   1.419       .  A
C494        C495   1.490       .  S
C495        H499   1.111       .  S
C495        H500   1.109       .  S
C495        H501   1.107       .  S
C498        H502   1.110       .  S
C498        H503   1.109       .  S
C498        H504   1.111       .  S
C505        C506   1.410       .  A
C505        C510   1.400       .  A
C505        H512   1.082       .  S
C506        C507   1.418       .  A
C507        C508   1.407       .  A
C507        C514   1.508       .  S
C508        C509   1.404       .  A
C508        H513   1.083       .  S
C509        C510   1.410       .  A
C510        C511   1.509       .  S
C511        H515   1.111       .  S
C511        H516   1.110       .  S
C511        H517   1.111       .  S
C514        H518   1.111       .  S
C514        H519   1.109       .  S
C514        H520   1.111       .  S
C521        C522   1.412       .  A
C521        C526   1.403       .  A
C521        H528   1.084       .  S
C522        C523   1.418       .  A
C523        C524   1.406       .  A
C523        C530   1.508       .  S
C524        C525   1.406       .  A
C524        H529   1.085       .  S
C525        C526   1.412       .  A
C526        C527   1.509       .  S
C527        H531   1.111       .  S
C527        H532   1.110       .  S
C527        H533   1.109       .  S
C530        H534   1.111       .  S
C530        H535   1.109       .  S
C530        H536   1.111       .  S
C537        C538   1.402       .  A
C537        C542   1.407       .  A
C537        H544   1.085       .  S
C538        C539   1.411       .  A
C539        C540   1.404       .  A
C539        C546   1.508       .  S
C540        C541   1.410       .  A
C540        H545   1.084       .  S
C541        C542   1.422       .  A
C542        C543   1.509       .  S
C543        H547   1.111       .  S
C543        H548   1.110       .  S
C543        H549   1.110       .  S
C546        H550   1.110       .  S
C546        H551   1.111       .  S
C546        H552   1.111       .  S
C553        C554   1.403       .  A
C553        C558   1.402   1_556  A
C553        H560   1.082       .  S
C554        C555   1.414       .  A
C555        C556   1.406   1_556  A
C555        C562   1.508       .  S
C556        C557   1.401       .  A
C556        H561   1.082       .  S
C557        C558   1.409       .  A
C558        C559   1.507       .  S
C559        H563   1.111       .  S
C559        H564   1.110       .  S
C559        H565   1.109       .  S
C562        H566   1.111       .  S
C562        H567   1.109       .  S
C562        H568   1.111       .  S
C569        C570   1.403       .  A
C569        C574   1.408       .  A
C569        H576   1.085       .  S
C570        C571   1.411       .  A
C571        C572   1.402       .  A
C571        C578   1.508       .  S
C572        C573   1.409       .  A
C572        H577   1.084       .  S
C573        C574   1.421       .  A
C574        C575   1.508       .  S
C575        H579   1.111       .  S
C575        H580   1.111       .  S
C575        H581   1.109       .  S
C578        H582   1.109       .  S
C578        H583   1.110       .  S
C578        H584   1.111       .  S
C585        C586   1.410       .  A
C585        C590   1.401       .  A
C585        H592   1.083       .  S
C586        C587   1.418       .  A
C587        C588   1.407       .  A
C587        C594   1.508       .  S
C588        C589   1.404       .  A
C588        H593   1.084       .  S
C589        C590   1.410       .  A
C590        C591   1.508       .  S
C591        H595   1.111       .  S
C591        H596   1.109       .  S
C591        H597   1.111       .  S
C594        H598   1.111       .  S
C594        H599   1.109       .  S
C594        H600   1.111       .  S
C601        C602   1.407       .  A
C601        C606   1.402   1_565  A
C601        H608   1.084       .  S
C602        C603   1.418       .  A
C603        C604   1.407   1_565  A
C603        C610   1.508       .  S
C604        C605   1.403       .  A
C604        H609   1.084       .  S
C605        C606   1.414       .  A
C606        C607   1.509       .  S
C607        H611   1.110       .  S
C607        H612   1.106       .  S
C607        H613   1.111       .  S
C610        H614   1.111       .  S
C610        H615   1.109       .  S
C610        H616   1.111       .  S
C617        C618   1.403       .  A
C617        C622   1.404   1_556  A
C617        H624   1.085       .  S
C618        C619   1.422       .  A
C619        C620   1.405   1_556  A
C619        C626   1.509       .  S
C620        C621   1.404       .  A
C620        H625   1.084       .  S
C621        C622   1.424       .  A
C622        C623   1.510       .  S
C623        H627   1.111       .  S
C623        H628   1.110       .  S
C623        H629   1.110       .  S
C626        H630   1.110       .  S
C626        H631   1.110       .  S
C626        H632   1.111       .  S
C633        C634   1.397       .  A
C633        C638   1.393       .  A
C633        H640   1.084       .  S
C634        C635   1.427       .  A
C635        C636   1.408       .  A
C635        C642   1.509       .  S
C636        C637   1.402       .  A
C636        H641   1.084       .  S
C637        C638   1.417       .  A
C638        C639   1.494       .  S
C639        H643   1.111       .  S
C639        H644   1.108       .  S
C639        H645   1.098       .  S
C642        H646   1.105       .  S
C642        H647   1.111       .  S
C642        H648   1.110       .  S
C649        C650   1.396       .  A
C649        C654   1.398       .  A
C649        H656   1.085       .  S
C650        C651   1.408       .  A
C651        C652   1.404       .  A
C651        C658   1.507       .  S
C652        C653   1.413       .  A
C652        H657   1.083       .  S
C653        C654   1.416       .  A
C654        C655   1.491       .  S
C655        H659   1.111       .  S
C655        H660   1.108       .  S
C655        H661   1.108       .  S
C658        H662   1.110       .  S
C658        H663   1.111       .  S
C658        H664   1.111       .  S
C665        C666   1.398       .  A
C665        C670   1.404   1_554  A
C665        H672   1.085       .  S
C666        C667   1.417       .  A
C667        C668   1.405   1_554  A
C667        C674   1.509       .  S
C668        C669   1.405       .  A
C668        H673   1.084       .  S
C669        C670   1.426       .  A
C670        C671   1.510       .  S
C671        H675   1.111       .  S
C671        H676   1.110       .  S
C671        H677   1.110       .  S
C674        H678   1.109       .  S
C674        H679   1.110       .  S
C674        H680   1.111       .  S
C681        C682   1.409       .  A
C681        C686   1.392       .  A
C681        H688   1.085       .  S
C682        C683   1.416       .  A
C683        C684   1.408       .  A
C683        C690   1.496       .  S
C684        C685   1.401       .  A
C684        H689   1.085       .  S
C685        C686   1.406       .  A
C686        C687   1.510       .  S
C687        H691   1.111       .  S
C687        H692   1.109       .  S
C687        H693   1.110       .  S
C690        H694   1.107       .  S
C690        H695   1.109       .  S
C690        H696   1.111       .  S
C697        C698   1.401       .  A
C697        C702   1.402       .  A
C697        H704   1.084       .  S
C698        C699   1.426       .  A
C699        C700   1.407       .  A
C699        C706   1.509       .  S
C700        C701   1.399       .  A
C700        H705   1.085       .  S
C701        C702   1.411       .  A
C702        C703   1.492       .  S
C703        H707   1.111       .  S
C703        H708   1.108       .  S
C703        H709   1.111       .  S
C706        H710   1.111       .  S
C706        H711   1.110       .  S
C706        H712   1.111       .  S
C713        C714   1.405       .  A
C713        C718   1.406       .  A
C713        H720   1.084       .  S
C714        C715   1.411       .  A
C715        C716   1.404       .  A
C715        C722   1.508       .  S
C716        C717   1.411       .  A
C716        H721   1.083       .  S
C717        C718   1.420       .  A
C718        C719   1.508       .  S
C719        H723   1.111       .  S
C719        H724   1.110       .  S
C719        H725   1.110       .  S
C722        H726   1.110       .  S
C722        H727   1.110       .  S
C722        H728   1.111       .  S
C729        C730   1.405       .  A
C729        C734   1.412       .  A
C729        H736   1.083       .  S
C730        C731   1.410       .  A
C731        C732   1.394       .  A
C731        C738   1.505       .  S
C732        C733   1.400       .  A
C732        H737   1.084       .  S
C733        C734   1.413       .  A
C734        C735   1.505       .  S
C735        H739   1.111       .  S
C735        H740   1.111       .  S
C735        H741   1.109       .  S
C738        H742   1.109       .  S
C738        H743   1.108       .  S
C738        H744   1.111       .  S
C745        C746   1.398       .  A
C745        C750   1.404   1_655  A
C745        H752   1.085       .  S
C746        C747   1.408       .  A
C747        C748   1.399   1_655  A
C747        C754   1.496       .  S
C748        C749   1.399       .  A
C748        H753   1.085       .  S
C749        C750   1.419       .  A
C750        C751   1.509       .  S
C751        H755   1.111       .  S
C751        H756   1.111       .  S
C751        H757   1.109       .  S
C754        H758   1.105       .  S
C754        H759   1.111       .  S
C754        H760   1.111       .  S
C761        C762   1.408       .  A
C761        C766   1.404   1_556  A
C761        H768   1.084       .  S
C762        C763   1.417       .  A
C763        C764   1.402   1_556  A
C763        C770   1.509       .  S
C764        C765   1.407       .  A
C764        H769   1.084       .  S
C765        C766   1.415       .  A
C766        C767   1.508       .  S
C767        H771   1.111       .  S
C767        H772   1.110       .  S
C767        H773   1.111       .  S
C770        H774   1.110       .  S
C770        H775   1.111       .  S
C770        H776   1.111       .  S
C777        C778   1.399       .  A
C777        C782   1.393       .  A
C777        H784   1.085       .  S
C778        C779   1.412       .  A
C779        C780   1.411       .  A
C779        C786   1.506       .  S
C780        C781   1.414       .  A
C780        H785   1.083       .  S
C781        C782   1.418       .  A
C782        C783   1.498       .  S
C783        H787   1.111       .  S
C783        H788   1.098       .  S
C783        H789   1.109       .  S
C786        H790   1.110       .  S
C786        H791   1.107       .  S
C786        H792   1.111       .  S
C793        C794   1.405       .  A
C793        C798   1.410       .  A
C793        H800   1.084       .  S
C794        C795   1.417       .  A
C795        C796   1.396       .  A
C795        C802   1.506       .  S
C796        C797   1.395       .  A
C796        H801   1.085       .  S
C797        C798   1.410       .  A
C798        C799   1.504       .  S
C799        H803   1.111       .  S
C799        H804   1.108       .  S
C799        H805   1.111       .  S
C802        H806   1.109       .  S
C802        H807   1.106       .  S
C802        H808   1.111       .  S
C809        C810   1.405       .  A
C809        C814   1.408       .  A
C809        H816   1.085       .  S
C810        C811   1.409       .  A
C811        C812   1.402       .  A
C811        C818   1.508       .  S
C812        C813   1.412       .  A
C812        H817   1.084       .  S
C813        C814   1.419       .  A
C814        C815   1.508       .  S
C815        H819   1.111       .  S
C815        H820   1.111       .  S
C815        H821   1.109       .  S
C818        H822   1.110       .  S
C818        H823   1.110       .  S
C818        H824   1.111       .  S
C825        C826   1.402       .  A
C825        C830   1.400       .  A
C825        H832   1.084       .  S
C826        C827   1.421       .  A
C827        C828   1.408       .  A
C827        C834   1.508       .  S
C828        C829   1.405       .  A
C828        H833   1.084       .  S
C829        C830   1.423       .  A
C830        C831   1.512       .  S
C831        H835   1.111       .  S
C831        H836   1.110       .  S
C831        H837   1.110       .  S
C834        H838   1.109       .  S
C834        H839   1.110       .  S
C834        H840   1.111       .  S
