geometry optimzed in LAMMPS
_audit_creation_date              2020-11-30 
_audit_creation_method            'lammps2cif' 
_symmetry_space_group_name_H-M    'P1' 
_symmetry_Int_Tables_number       1 
_symmetry_cell_setting            triclinic 
loop_ 
_symmetry_equiv_pos_as_xyz 
  x,y,z 
_cell_length_a                    32.35325301 
_cell_length_b                    33.54908863849546 
_cell_length_c                    45.74314132798676 
_cell_angle_alpha                 90.00961982222508 
_cell_angle_beta                  89.33115412614386 
_cell_angle_gamma                 89.9921050589737 
loop_ 
_atom_site_label 
_atom_site_type_symbol 
_atom_site_fract_x 
_atom_site_fract_y 
_atom_site_fract_z 
_atom_site_charge 
C1          C  0.78087216  0.22233169  0.00136168     0.80900
N2          N  0.79406568  0.20540920  0.47588814    -0.77500
C3          C  0.81997339  0.17363037  0.47626982     0.83300
N4          N  0.83184352  0.15817552  0.50226508    -0.77400
C5          C  0.81959644  0.17531244  0.02784380     0.83400
N6          N  0.79428887  0.20771417  0.02737374    -0.79100
C7          C  0.23038441  0.79798590  0.49863884     0.80900
N8          N  0.21264599  0.80936161  0.47308706    -0.77500
C9          C  0.17878009  0.83324763  0.47354628     0.83300
N10         N  0.16292048  0.84562337  0.49942607    -0.77400
C11         C  0.18062057  0.83519199  0.02492343     0.83400
N12         N  0.21444741  0.81120620  0.02460967    -0.79100
Zn13       Zn  0.47416544  0.52739579  0.46514991     1.49700
Zn14       Zn  0.55740803  0.51221881  0.00074737     1.49400
Zn15       Zn  0.47143647  0.52654215  0.03387073     1.49100
Zn16       Zn  0.48430428  0.44441316  0.99930527     1.49500
O17         O  0.49711436  0.50216709  0.99969560    -1.83500
O18         O  0.51900517  0.55272796  0.44144082    -0.74100
O19         O  0.57388479  0.54356752  0.03671066    -0.73900
O20         O  0.43247881  0.57082811  0.02366564    -0.73500
O21         O  0.57787813  0.54298081  0.46490242    -0.74100
O22         O  0.43324646  0.57103313  0.47516450    -0.73700
O23         O  0.51369443  0.55008306  0.06005190    -0.74300
O24         O  0.44958308  0.42794785  0.03536263    -0.73700
O25         O  0.58744919  0.45960442  0.00205045    -0.74500
O26         O  0.44048294  0.48639496  0.05741047    -0.73900
O27         O  0.53843934  0.41309037  0.99837340    -0.74300
O28         O  0.45208801  0.42936009  0.46291672    -0.74200
O29         O  0.44731688  0.48694797  0.43908740    -0.74000
C30         C  0.55792392  0.55685365  0.44331101     0.77800
C31         C  0.55250741  0.55558155  0.05851998     0.78300
C32         C  0.42055251  0.58516155  0.99946852     0.77200
C33         C  0.43458234  0.44898692  0.05619379     0.77600
C34         C  0.57635570  0.42324944  0.00026524     0.78700
C35         C  0.44070539  0.44962198  0.44084800     0.77800
C36         C  0.27905830  0.28251323  0.25084666     0.80900
N37         N  0.29525761  0.29732203  0.27605876    -0.77500
C38         C  0.32129857  0.32927024  0.27488883     0.83300
N39         N  0.33103548  0.34573396  0.24859909    -0.77400
C40         C  0.31586334  0.33054669  0.22350484     0.83400
N41         N  0.28967920  0.29910424  0.22469613    -0.79100
C42         C  0.73181711  0.70376657  0.24782611     0.80900
N43         N  0.71584182  0.69088118  0.27384034    -0.77500
C44         C  0.68249735  0.66628669  0.27435381     0.83300
N45         N  0.66520520  0.65477449  0.24885959    -0.77400
C46         C  0.68162387  0.66649729  0.22286982     0.83400
N47         N  0.71487467  0.69113785  0.22236475    -0.79100
Zn48       Zn  0.98708582  0.05899071  0.24932868     1.49700
Zn49       Zn  0.97413612  0.97640788  0.21598337     1.49400
Zn50       Zn  0.05754107  0.98918907  0.25197016     1.49100
Zn51       Zn  0.97054129  0.97774576  0.28456452     1.49500
O52         O  0.99764218  0.00097449  0.25048168    -1.83500
O53         O  0.95375105  0.07485317  0.21336645    -0.74100
O54         O  0.01894811  0.95431476  0.19074483    -0.73900
O55         O  0.08958752  0.04085667  0.25402180    -0.73500
O56         O  0.94432181  0.01638198  0.19160394    -0.74100
O57         O  0.04197906  0.08807736  0.24757372    -0.73700
O58         O  0.07735549  0.95931419  0.21560641    -0.74300
O59         O  0.01190737  0.95406555  0.31147119    -0.73700
O60         O  0.93507927  0.93121716  0.22562189    -0.74500
O61         O  0.07222924  0.95691032  0.28785652    -0.73900
O62         O  0.93124370  0.93326073  0.27407590    -0.74300
O63         O  0.94142411  0.01967073  0.30798658    -0.74200
O64         O  0.95558017  0.07741608  0.28616407    -0.74000
C65         C  0.93918352  0.05394638  0.19259444     0.77800
C66         C  0.05761941  0.94873149  0.19294061     0.78300
C67         C  0.07944261  0.07729002  0.25085067     0.77200
C68         C  0.05041314  0.94684125  0.30998810     0.77600
C69         C  0.92110383  0.91776844  0.24978162     0.78700
C70         C  0.93919750  0.05750723  0.30707602     0.77800
C71         C  0.80801757  0.77806478  0.26225064     0.21000
C72         C  0.83182243  0.80361890  0.27952816    -0.38900
C73         C  0.85440152  0.83281045  0.26432075     0.20000
C74         C  0.85365260  0.83610224  0.23416530     0.22600
C75         C  0.83010411  0.81029059  0.21682988    -0.39400
C76         C  0.80728325  0.78122352  0.23208218     0.21400
N77         N  0.78220961  0.74929461  0.27160477    -0.32700
C78         C  0.76477323  0.73402910  0.24725106    -0.10200
C79         C  0.77982435  0.75302985  0.22213455    -0.29000
N80         N  0.87732700  0.86673648  0.22509127    -0.45600
C81         C  0.89306296  0.88316403  0.24967589    -0.04900
C82         C  0.87947711  0.86277200  0.27456173    -0.22300
H83         H  0.83207099  0.80145418  0.30313323     0.19500
H84         H  0.82903045  0.81309637  0.19327753     0.18300
H85         H  0.77074843  0.74791339  0.19974258     0.14600
H86         H  0.88691010  0.86907129  0.29710385     0.14500
H87         H  0.77605311  0.74126266  0.29328963     0.32600
H88         H  0.88228969  0.87602323  0.20353702     0.35400
C89         C  0.21512262  0.19665132  0.26243456     0.21000
C90         C  0.20212290  0.16036892  0.27487554    -0.38900
C91         C  0.16676793  0.14313846  0.26251494     0.20000
C92         C  0.14556983  0.16116066  0.23994521     0.22600
C93         C  0.15898215  0.19690550  0.22716504    -0.39400
C94         C  0.19465292  0.21367265  0.23913165     0.21400
N95         N  0.24760202  0.21928425  0.27022428    -0.32700
C96         C  0.24802710  0.25043860  0.25133254    -0.10200
C97         C  0.21562108  0.24783641  0.23161061    -0.29000
N98         N  0.11183691  0.14001107  0.23301535    -0.45600
C99         C  0.11184312  0.10792198  0.25095097    -0.04900
C100        C  0.14579098  0.10852844  0.26949669    -0.22300
H101        H  0.21822324  0.14665146  0.29287783     0.19500
H102        H  0.14271556  0.21076143  0.20929009     0.18300
H103        H  0.20824412  0.26843963  0.21422311     0.14600
H104        H  0.15335858  0.08716224  0.28633308     0.14500
H105        H  0.26850158  0.21361315  0.28695402     0.32600
H106        H  0.09016219  0.14689169  0.21704736     0.35400
C107        C  0.37942358  0.38797390  0.10801858     0.21000
C108        C  0.36255024  0.35312794  0.12049702    -0.38900
C109        C  0.34815738  0.35672262  0.14955916     0.20000
C110        C  0.35074232  0.39224128  0.16487117     0.22600
C111        C  0.36627567  0.42714304  0.15217068    -0.39400
C112        C  0.38042014  0.42357723  0.12329314     0.21400
N113        N  0.39803826  0.39209027  0.08163196    -0.32700
C114        C  0.41068701  0.43065939  0.08034028    -0.10200
C115        C  0.39981937  0.45113129  0.10579992    -0.29000
N116        N  0.33875472  0.38736484  0.19278759    -0.45600
C117        C  0.32798210  0.34856725  0.19542214    -0.04900
C118        C  0.33288508  0.32844473  0.16885391    -0.22300
H119        H  0.36206110  0.32503718  0.10887074     0.19500
H120        H  0.36868599  0.45474746  0.16428962     0.18300
H121        H  0.40675223  0.48178792  0.11127579     0.14600
H122        H  0.32810726  0.29703345  0.16469131     0.14500
H123        H  0.40255890  0.36999783  0.06583004     0.32600
H124        H  0.33872392  0.40896101  0.20924944     0.35400
C125        C  0.40024037  0.41886097  0.37216145     0.21000
C126        C  0.39313560  0.42166232  0.34210597    -0.38900
C127        C  0.37133268  0.38993086  0.32976836     0.20000
C128        C  0.35717881  0.35781876  0.34601976     0.22600
C129        C  0.36460900  0.35486345  0.37623234    -0.39400
C130        C  0.38693948  0.38658887  0.38862018     0.21400
N131        N  0.42035872  0.44525185  0.38880985    -0.32700
C132        C  0.42046022  0.42971630  0.41612936    -0.10200
C133        C  0.40001749  0.39300887  0.41694179    -0.29000
N134        N  0.33695083  0.33176761  0.32882025    -0.45600
C135        C  0.33869240  0.34751200  0.30147383    -0.04900
C136        C  0.35994275  0.38368178  0.30134018    -0.22300
H137        H  0.40395804  0.44670917  0.32921305     0.19500
H138        H  0.35400417  0.32971050  0.38908789     0.18300
H139        H  0.39527837  0.37378534  0.43567794     0.14600
H140        H  0.36622317  0.40293615  0.28282442     0.14500
H141        H  0.43371718  0.47205056  0.38190585     0.32600
H142        H  0.32319823  0.30492225  0.33520304     0.35400
C143        C  0.61803658  0.60435288  0.10981956     0.21000
C144        C  0.65458945  0.62055374  0.12117226    -0.38900
C145        C  0.65216566  0.63341525  0.15040239     0.20000
C146        C  0.61616222  0.63002808  0.16689941     0.22600
C147        C  0.57957455  0.61479941  0.15539270    -0.39400
C148        C  0.58195875  0.60218386  0.12632139     0.21400
N149        N  0.61243601  0.58821162  0.08320776    -0.32700
C150        C  0.57246072  0.57598092  0.08299712    -0.10200
C151        C  0.55251276  0.58444933  0.10939957    -0.29000
N152        N  0.62224797  0.64178444  0.19449046    -0.45600
C153        C  0.66230188  0.65316330  0.19570329    -0.04900
C154        C  0.68204200  0.64877260  0.16857569    -0.22300
H155        H  0.68297254  0.62213919  0.10846726     0.19500
H156        H  0.55154139  0.61201383  0.16838251     0.18300
H157        H  0.52093078  0.57756991  0.11564128     0.14600
H158        H  0.71415832  0.65455946  0.16322657     0.14500
H159        H  0.63439715  0.58535509  0.06642937     0.32600
H160        H  0.60053849  0.64166043  0.21158117     0.35400
C161        C  0.58788314  0.60525986  0.37711304     0.21000
C162        C  0.58157208  0.61988179  0.34890164    -0.38900
C163        C  0.61702114  0.63254563  0.33388757     0.20000
C164        C  0.65592262  0.63162060  0.34615782     0.22600
C165        C  0.66226427  0.61702612  0.37464186    -0.39400
C166        C  0.62662015  0.60358538  0.38960171     0.21400
N167        N  0.55914846  0.58974710  0.39502071    -0.32700
C168        C  0.57935525  0.57756171  0.41916656    -0.10200
C169        C  0.62164904  0.58579404  0.41676122    -0.29000
N170        N  0.68457862  0.64469554  0.32680763    -0.45600
C171        C  0.66352263  0.65324755  0.30208587    -0.04900
C172        C  0.62143349  0.64601493  0.30570738    -0.22300
H173        H  0.55131539  0.62033583  0.33904905     0.19500
H174        H  0.69269850  0.61536339  0.38413711     0.18300
H175        H  0.64549759  0.57888383  0.43236339     0.14600
H176        H  0.59736290  0.64962741  0.28967828     0.14500
H177        H  0.52764731  0.58680803  0.39072188     0.32600
H178        H  0.71644514  0.64660613  0.32988994     0.35400
C179        C  0.15334240  0.86995739  0.09653214     0.21000
C180        C  0.15868073  0.88084336  0.12597158    -0.38900
C181        C  0.12470418  0.89994628  0.13941919     0.20000
C182        C  0.08836506  0.90709498  0.12460031     0.22600
C183        C  0.08309620  0.89640505  0.09538803    -0.39400
C184        C  0.11691518  0.87779252  0.08202009     0.21400
N185        N  0.18100983  0.85251003  0.07836152    -0.32700
C186        C  0.16179533  0.84985900  0.05221786    -0.10200
C187        C  0.12187365  0.86520297  0.05376765    -0.29000
N188        N  0.06055316  0.92517268  0.14189378    -0.45600
C189        C  0.07902572  0.92996483  0.16803839    -0.04900
C190        C  0.11925840  0.91476948  0.16744313    -0.22300
H191        H  0.18718029  0.87524034  0.13742114     0.19500
H192        H  0.05478313  0.90248042  0.08381454     0.18300
H193        H  0.09964885  0.86749393  0.03633026     0.14600
H194        H  0.14124723  0.91431874  0.18508602     0.14500
H195        H  0.21119720  0.84392870  0.08318834     0.32600
H196        H  0.03069855  0.93383655  0.13617172     0.35400
C197        C  0.11336401  0.89505880  0.36117049     0.21000
C198        C  0.14812055  0.87458422  0.37153753    -0.38900
C199        C  0.14671293  0.86410268  0.40123916     0.20000
C200        C  0.11331662  0.87364555  0.41911382     0.22600
C201        C  0.07836973  0.89341393  0.40869323    -0.39400
C202        C  0.07970961  0.90362183  0.37907396     0.21400
N203        N  0.10748423  0.90942232  0.33409528    -0.32700
C204        C  0.06968584  0.92685374  0.33488390    -0.10200
C205        C  0.05140558  0.92372008  0.36251319    -0.33000
N206        N  0.12043517  0.86291008  0.44676996    -0.45600
C207        C  0.15857504  0.84625630  0.44665090    -0.04900
C208        C  0.17590248  0.84600070  0.41858666    -0.22300
H209        H  0.17458282  0.86801003  0.35767165     0.19500
H210        H  0.05241551  0.90103091  0.42276775     0.18300
H211        H  0.02169034  0.93524145  0.36963059     0.14600
H212        H  0.20631665  0.83565275  0.41205131     0.14500
H213        H  0.12782788  0.90750640  0.31624753     0.32600
H214        H  0.10081426  0.86743073  0.46477361     0.35400
C215        C  0.30657316  0.72383637  0.01325986     0.21000
C216        C  0.32863407  0.69669910  0.03041590    -0.38900
C217        C  0.35235150  0.66860155  0.01494389     0.20000
C218        C  0.35423897  0.66779034  0.98469459     0.22600
C219        C  0.33255222  0.69523531  0.96753123    -0.39400
C220        C  0.30858455  0.72317563  0.98300886     0.21400
N221        N  0.27971282  0.75166538  0.02266766    -0.32700
C222        C  0.26423495  0.76867117  0.99825619    -0.10200
C223        C  0.28181065  0.75195228  0.47307960    -0.29000
N224        N  0.37851707  0.63781243  0.47529891    -0.45600
C225        C  0.39212903  0.61939097  0.99972751    -0.04900
C226        C  0.37646311  0.63774533  0.02489206    -0.22300
H227        H  0.32669131  0.69685255  0.05405542     0.19500
H228        H  0.33355813  0.69434619  0.44388492     0.18300
H229        H  0.27456615  0.75867654  0.45057004     0.14600
H230        H  0.38202413  0.62962635  0.04740765     0.14500
H231        H  0.27133370  0.75770672  0.04436673     0.32600
H232        H  0.38544791  0.63037806  0.45359478     0.35400
C233        C  0.88778740  0.11703727  0.14105826     0.21000
C234        C  0.87290051  0.15265193  0.12871280    -0.38900
C235        C  0.85639460  0.14930520  0.10045466     0.20000
C236        C  0.85522301  0.11325671  0.08574440     0.22600
C237        C  0.86906466  0.07768514  0.09831255    -0.39400
C238        C  0.88535202  0.08102711  0.12641420     0.21400
N239        N  0.90691014  0.11229585  0.16687175    -0.32700
C240        C  0.91646080  0.07294214  0.16852301    -0.10200
C241        C  0.90327256  0.05258588  0.14375052    -0.29000
N242        N  0.84130758  0.11815681  0.05847354    -0.45600
C243        C  0.83309779  0.15753605  0.05562086    -0.04900
C244        C  0.84163390  0.17802294  0.08147876    -0.22300
H245        H  0.87507659  0.18098521  0.13990296     0.19500
H246        H  0.86840769  0.04960592  0.08666600     0.18300
H247        H  0.90733481  0.02128571  0.13872051     0.14600
H248        H  0.83930925  0.20977426  0.08534026     0.14500
H249        H  0.91354375  0.13443815  0.18216097     0.32600
H250        H  0.83826075  0.09609365  0.04252853     0.35400
C251        C  0.86065093  0.14966536  0.40526616     0.21000
C252        C  0.87769524  0.15669682  0.37723356    -0.38900
C253        C  0.89169629  0.12270856  0.36198855     0.20000
C254        C  0.88836856  0.08485650  0.37381483     0.22600
C255        C  0.87155089  0.07789369  0.40169424    -0.39400
C256        C  0.85819624  0.11169527  0.41699251     0.21400
N257        N  0.84616535  0.17671375  0.42459513    -0.32700
C258        C  0.83515929  0.15568227  0.44882247    -0.10200
C259        C  0.84227357  0.11510605  0.44489642    -0.29000
N260        N  0.90413472  0.05752865  0.35548993    -0.45600
C261        C  0.91803725  0.07772414  0.33169617    -0.04900
C262        C  0.91090021  0.11865147  0.33487663    -0.22300
H263        H  0.88042894  0.18639999  0.36818652     0.19500
H264        H  0.86968093  0.04828435  0.41101306     0.18300
H265        H  0.83689732  0.09136551  0.46050484     0.14600
H266        H  0.91908868  0.14215555  0.31967810     0.14500
H267        H  0.84487921  0.20760968  0.42182476     0.32600
H268        H  0.90590437  0.02684716  0.35921247     0.35400
C269        C  0.64301480  0.33927758  0.48997301     0.21000
C270        C  0.65710152  0.30342477  0.47755612    -0.38900
C271        C  0.69423694  0.28847185  0.48873555     0.20000
C272        C  0.71525753  0.30725082  0.51105649     0.22600
C273        C  0.70158205  0.34350526  0.52307502    -0.39400
C274        C  0.66493115  0.35892503  0.51144171     0.21400
N275        N  0.60829583  0.35933992  0.48348607    -0.32700
C276        C  0.60853151  0.39230833  0.00060616    -0.10200
C277        C  0.64346755  0.39327771  0.01816218    -0.29000
N278        N  0.74877324  0.28605441  0.01867030    -0.45600
C279        C  0.74949944  0.25403329  0.00061174    -0.04900
C280        C  0.71615315  0.25459346  0.48155769    -0.22300
H281        H  0.64034438  0.28823407  0.46050829     0.19500
H282        H  0.71813345  0.35852405  0.04030518     0.18300
H283        H  0.65165136  0.41578520  0.03403009     0.14600
H284        H  0.70851894  0.23264660  0.46513485     0.14500
H285        H  0.58607432  0.35139234  0.46817237     0.32600
H286        H  0.76996877  0.29301176  0.03494824     0.35400
C287        C  0.78086161  0.22231526  0.50136230     0.80900
N288        N  0.79407990  0.20542415  0.97588887    -0.77500
C289        C  0.81998020  0.17363972  0.97627335     0.83300
N290        N  0.83184011  0.15818150  0.00226985    -0.77400
C291        C  0.81960275  0.17530503  0.52784025     0.83400
N292        N  0.79428842  0.20770184  0.52737285    -0.79100
C293        C  0.23037328  0.79797066  0.99863650     0.80900
N294        N  0.21262781  0.80933228  0.97308423    -0.77500
C295        C  0.17875703  0.83321085  0.97354104     0.83300
N296        N  0.16289981  0.84559498  0.99941942    -0.77400
C297        C  0.18063432  0.83520605  0.52492924     0.83400
N298        N  0.21445626  0.81121430  0.52461319    -0.79100
Zn299      Zn  0.47414771  0.52737985  0.96514608     1.49700
Zn300      Zn  0.55743430  0.51223527  0.50074299     1.49400
Zn301      Zn  0.47146505  0.52655263  0.53387566     1.49100
Zn302      Zn  0.48432951  0.44442782  0.49930531     1.49500
O303        O  0.49713954  0.50218215  0.49969705    -1.83500
O304        O  0.51899458  0.55271165  0.94144329    -0.74100
O305        O  0.57391784  0.54357747  0.53671087    -0.73900
O306        O  0.43250569  0.57084467  0.52367529    -0.73500
O307        O  0.57786103  0.54296720  0.96491340    -0.74100
O308        O  0.43323115  0.57102099  0.97515507    -0.73700
O309        O  0.51373027  0.55008055  0.56005827    -0.74300
O310        O  0.44961107  0.42795511  0.53536186    -0.73700
O311        O  0.58747537  0.45961944  0.50204203    -0.74500
O312        O  0.44051286  0.48639960  0.55741352    -0.73900
O313        O  0.53846319  0.41310688  0.49837066    -0.74300
O314        O  0.45206205  0.42934496  0.96291595    -0.74200
O315        O  0.44729661  0.48693182  0.93908453    -0.74000
C316        C  0.55791224  0.55684130  0.94332037     0.77800
C317        C  0.55254322  0.55558014  0.55852541     0.78300
C318        C  0.42057230  0.58517541  0.49947867     0.77200
C319        C  0.43461233  0.44899142  0.55619511     0.77600
C320        C  0.57638013  0.42326465  0.50025867     0.78700
C321        C  0.44068116  0.44960640  0.94084636     0.77800
C322        C  0.27905869  0.28249638  0.75083043     0.80900
N323        N  0.29525568  0.29730252  0.77604442    -0.77500
C324        C  0.32129429  0.32925297  0.77487805     0.83300
N325        N  0.33103121  0.34572148  0.74858987    -0.77400
C326        C  0.31586239  0.33053684  0.72349361     0.83400
N327        N  0.28968085  0.29909204  0.72468155    -0.79100
C328        C  0.73183304  0.70374845  0.74784927     0.80900
N329        N  0.71585928  0.69086256  0.77386352    -0.77500
C330        C  0.68251880  0.66626367  0.77437704     0.83300
N331        N  0.66522769  0.65474901  0.74888276    -0.77400
C332        C  0.68164513  0.66647321  0.72289294     0.83400
N333        N  0.71489282  0.69111715  0.72238805    -0.79100
Zn334      Zn  0.98707473  0.05897979  0.74932883     1.49700
Zn335      Zn  0.97413125  0.97639458  0.71598621     1.49400
Zn336      Zn  0.05753451  0.98918217  0.75197346     1.49100
Zn337      Zn  0.97053726  0.97773911  0.78456848     1.49500
O338        O  0.99763540  0.00096479  0.75048395    -1.83500
O339        O  0.95373331  0.07483532  0.71336893    -0.74100
O340        O  0.01894330  0.95428913  0.69075446    -0.73900
O341        O  0.08957398  0.04085321  0.75401988    -0.73500
O342        O  0.94432460  0.01636598  0.69159928    -0.74100
O343        O  0.04196468  0.08807088  0.74756207    -0.73700
O344        O  0.07735177  0.95930383  0.71561294    -0.74300
O345        O  0.01190145  0.95404156  0.81146761    -0.73700
O346        O  0.93506576  0.93121403  0.72562748    -0.74500
O347        O  0.07222656  0.95690117  0.78785862    -0.73900
O348        O  0.93122555  0.93326903  0.77408120    -0.74300
O349        O  0.94143500  0.01966505  0.80799769    -0.74200
O350        O  0.95558033  0.07740802  0.78616874    -0.74000
C351        C  0.93917732  0.05392906  0.69259260     0.77800
C352        C  0.05761525  0.94871039  0.69295023     0.78300
C353        C  0.07942817  0.07728511  0.75084122     0.77200
C354        C  0.05040771  0.94681981  0.80998576     0.77600
C355        C  0.92108425  0.91777469  0.74978818     0.78700
C356        C  0.93920708  0.05750118  0.80708543     0.77800
C357        C  0.80800232  0.77807433  0.76227137     0.21000
C358        C  0.83179232  0.80364280  0.77954731    -0.38900
C359        C  0.85437083  0.83283110  0.76433665     0.20000
C360        C  0.85363423  0.83610745  0.73417999     0.22600
C361        C  0.83009883  0.81028296  0.71684643    -0.39400
C362        C  0.80727953  0.78121830  0.73210178     0.21400
N363        N  0.78220062  0.74930061  0.77162756    -0.32700
C364        C  0.76478004  0.73401856  0.74727373    -0.10200
C365        C  0.77983462  0.75301184  0.72215547    -0.29000
N366        N  0.87731129  0.86673740  0.72510225    -0.45600
C367        C  0.89303704  0.88317658  0.74968588    -0.04900
C368        C  0.87944094  0.86279802  0.77457467    -0.22300
H369        H  0.83203296  0.80148878  0.80315302     0.19500
H370        H  0.82903592  0.81307560  0.69329291     0.18300
H371        H  0.77076996  0.74788167  0.69976281     0.14600
H372        H  0.88686732  0.86910694  0.79711649     0.14500
H373        H  0.77603771  0.74127711  0.79331311     0.32600
H374        H  0.88228509  0.87601149  0.70354643     0.35400
C375        C  0.21510309  0.19664857  0.76242763     0.21000
C376        C  0.20208074  0.16038493  0.77488603    -0.38900
C377        C  0.16674121  0.14314221  0.76251326     0.20000
C378        C  0.14557680  0.16113571  0.73991535     0.22600
C379        C  0.15901231  0.19686167  0.72711811    -0.39400
C380        C  0.19466872  0.21364088  0.73909777     0.21400
N381        N  0.24757294  0.21928909  0.77022530    -0.32700
C382        C  0.24802843  0.25041947  0.75131236    -0.10200
C383        C  0.21565068  0.24779372  0.73156846    -0.29000
N384        N  0.11185033  0.13998019  0.73297829    -0.45600
C385        C  0.11182889  0.10791614  0.75093849    -0.04900
C386        C  0.14575083  0.10854473  0.76950667    -0.22300
H387        H  0.21815307  0.14669020  0.79291019     0.19500
H388        H  0.14277255  0.21069573  0.70922180     0.18300
H389        H  0.20829912  0.26837611  0.71416220     0.14600
H390        H  0.15329254  0.08720110  0.78636437     0.14500
H391        H  0.26844603  0.21363869  0.78697541     0.32600
H392        H  0.09019825  0.14684046  0.71699038     0.35400
C393        C  0.37944114  0.38797693  0.60801420     0.21000
C394        C  0.36254944  0.35313429  0.62048603    -0.38900
C395        C  0.34815965  0.35672471  0.64954952     0.20000
C396        C  0.35076451  0.39223616  0.66486855     0.22600
C397        C  0.36631669  0.42713480  0.65217493    -0.39400
C398        C  0.38045801  0.42357336  0.62329641     0.21400
N399        N  0.39805297  0.39209624  0.58162654    -0.32700
C400        C  0.41071939  0.43066075  0.58034199    -0.10200
C401        C  0.39986736  0.45112606  0.60580759    -0.29000
N402        N  0.33877634  0.38735527  0.69278444    -0.45600
C403        C  0.32798404  0.34856188  0.69541242    -0.04900
C404        C  0.33287377  0.32844704  0.66883966    -0.22300
H405        H  0.36204375  0.32504854  0.60885373     0.19500
H406        H  0.36874206  0.45473336  0.66429939     0.18300
H407        H  0.40681414  0.48177781  0.61128910     0.14600
H408        H  0.32807972  0.29703954  0.66467122     0.14500
H409        H  0.40255795  0.37000915  0.56581862     0.32600
H410        H  0.33875929  0.40894539  0.70925038     0.35400
C411        C  0.40019898  0.41885529  0.87216171     0.21000
C412        C  0.39307819  0.42166742  0.84210870    -0.38900
C413        C  0.37129813  0.38992476  0.82976600     0.20000
C414        C  0.35717966  0.35779214  0.84601060     0.22600
C415        C  0.36462600  0.35482629  0.87622070    -0.39400
C416        C  0.38693366  0.38656342  0.88861354     0.21400
N417        N  0.42030448  0.44525190  0.88881313    -0.32700
C418        C  0.42043379  0.42970108  0.91612776    -0.10200
C419        C  0.40002085  0.39297769  0.91693389    -0.29000
N420        N  0.33696686  0.33173401  0.82880746    -0.45600
C421        C  0.33868270  0.34749469  0.80146538    -0.04900
C422        C  0.35990177  0.38368164  0.80133827    -0.22300
H423        H  0.40387336  0.44673001  0.82922105     0.19500
H424        H  0.35404974  0.32965719  0.88907073     0.18300
H425        H  0.39530911  0.37373876  0.93566476     0.14600
H426        H  0.36615725  0.40295121  0.78282701     0.14500
H427        H  0.43363828  0.47206414  0.88191360     0.32600
H428        H  0.32324096  0.30487376  0.83518493     0.35400
C429        C  0.61807418  0.60432739  0.60983805     0.21000
C430        C  0.65462672  0.62052300  0.62119526    -0.38900
C431        C  0.65219735  0.63338752  0.65042455     0.20000
C432        C  0.61618924  0.63000759  0.66691728     0.22600
C433        C  0.57960217  0.61478322  0.65540624    -0.39400
C434        C  0.58199199  0.60216472  0.62633550     0.21400
N435        N  0.61247638  0.58818990  0.58322448    -0.32700
C436        C  0.57249824  0.57596817  0.58300784    -0.10200
C437        C  0.55254650  0.58443734  0.60940907    -0.29000
N438        N  0.62227005  0.64176621  0.69450862    -0.45600
C439        C  0.66232557  0.65313892  0.69572561    -0.04900
C440        C  0.68207132  0.64874260  0.66860061    -0.22300
H441        H  0.68301314  0.62210405  0.60849372     0.19500
H442        H  0.55156480  0.61200414  0.66839223     0.18300
H443        H  0.52096084  0.57756613  0.61564614     0.14600
H444        H  0.71418979  0.65452426  0.66325512     0.14500
H445        H  0.63444058  0.58533196  0.56644806     0.32600
H446        H  0.60055641  0.64164759  0.71159694     0.35400
C447        C  0.58788707  0.60525266  0.87712995     0.21000
C448        C  0.58158395  0.61986264  0.84891496    -0.38900
C449        C  0.61703486  0.63253159  0.83390683     0.20000
C450        C  0.65593113  0.63162472  0.84618586     0.22600
C451        C  0.66226482  0.61704461  0.87467504    -0.39400
C452        C  0.62661838  0.60359607  0.88962878     0.21400
N453        N  0.55914986  0.58973118  0.89503073    -0.32700
C454        C  0.57934881  0.57755649  0.91918230    -0.10200
C455        C  0.62164033  0.58580643  0.91678843    -0.29000
N456        N  0.68459075  0.64469838  0.82683768    -0.45600
C457        C  0.66354115  0.65323023  0.80210914    -0.04900
C458        C  0.62145369  0.64598700  0.80572424    -0.22300
H459        H  0.55133221  0.62030088  0.83905454     0.19500
H460        H  0.69269523  0.61539466  0.88417748     0.18300
H461        H  0.64548342  0.57890674  0.93239727     0.14600
H462        H  0.59738827  0.64958325  0.78968935     0.14500
H463        H  0.52765267  0.58677754  0.89072304     0.32600
H464        H  0.71645525  0.64662072  0.82992579     0.35400
C465        C  0.15334607  0.86994482  0.59654253     0.21000
C466        C  0.15868207  0.88082620  0.62598313    -0.38900
C467        C  0.12470252  0.89992272  0.63943190     0.20000
C468        C  0.08836262  0.90706830  0.62461311     0.22600
C469        C  0.08309567  0.89638175  0.59540018    -0.39400
C470        C  0.11691791  0.87777716  0.58203083     0.21400
N471        N  0.18101757  0.85250749  0.57836986    -0.32700
C472        C  0.16180465  0.84986078  0.55222541    -0.10200
C473        C  0.12188003  0.86519698  0.55377654    -0.29000
N474        N  0.06054944  0.92514397  0.64190629    -0.45600
C475        C  0.07902181  0.92993894  0.66805048    -0.04900
C476        C  0.11925568  0.91474624  0.66745572    -0.22300
H477        H  0.18718287  0.87522683  0.63743211     0.19500
H478        H  0.05478242  0.90245635  0.58382667     0.18300
H479        H  0.09965595  0.86748982  0.53633881     0.14600
H480        H  0.14124542  0.91429986  0.68509811     0.14500
H481        H  0.21120665  0.84393092  0.58319572     0.32600
H482        H  0.03069453  0.93380714  0.63618365     0.35400
C483        C  0.11334385  0.89500718  0.86116169     0.21000
C484        C  0.14809599  0.87452506  0.87152852    -0.38900
C485        C  0.14668541  0.86404220  0.90123005     0.20000
C486        C  0.11328985  0.87358934  0.91910423     0.22600
C487        C  0.07834628  0.89336209  0.90868329    -0.39400
C488        C  0.07968982  0.90357283  0.87906480     0.21400
N489        N  0.10747002  0.90938005  0.83408821    -0.32700
C490        C  0.06967571  0.92682010  0.83487822    -0.10200
C491        C  0.05139229  0.92368189  0.86250599    -0.33000
N492        N  0.12040858  0.86285976  0.94676150    -0.45600
C493        C  0.15854828  0.84620627  0.94664393    -0.04900
C494        C  0.17587470  0.84594308  0.91857931    -0.22300
H495        H  0.17455903  0.86795020  0.85766356     0.19500
H496        H  0.05239374  0.90098420  0.92275783     0.18300
H497        H  0.02167983  0.93520902  0.86962419     0.14600
H498        H  0.20628985  0.83559619  0.91204530     0.14500
H499        H  0.12781493  0.90746554  0.81624121     0.32600
H500        H  0.10078952  0.86738719  0.96476510     0.35400
C501        C  0.30657486  0.72384134  0.51326359     0.21000
C502        C  0.32863631  0.69670595  0.53042128    -0.38900
C503        C  0.35235744  0.66860908  0.51495111     0.20000
C504        C  0.35424629  0.66779612  0.48470197     0.22600
C505        C  0.33255758  0.69523832  0.46753690    -0.39400
C506        C  0.30858744  0.72317893  0.48301274     0.21400
N507        N  0.27971614  0.75167275  0.52266991    -0.32700
C508        C  0.26424062  0.76867949  0.49825786    -0.10200
C509        C  0.28180557  0.75194702  0.97307720    -0.29000
N510        N  0.37850476  0.63780418  0.97528977    -0.45600
C511        C  0.39214396  0.61940243  0.49973745    -0.04900
C512        C  0.37647399  0.63775664  0.52490098    -0.22300
H513        H  0.32669328  0.69686189  0.55406078     0.19500
H514        H  0.33355044  0.69434404  0.94387919     0.18300
H515        H  0.27455822  0.75867040  0.95056798     0.14600
H516        H  0.38203567  0.62964024  0.54741698     0.14500
H517        H  0.27133815  0.75771665  0.54436863     0.32600
H518        H  0.38543374  0.63037007  0.95358511     0.35400
C519        C  0.88779768  0.11702527  0.64105252     0.21000
C520        C  0.87292112  0.15264273  0.62870534    -0.38900
C521        C  0.85641278  0.14929761  0.60044797     0.20000
C522        C  0.85522992  0.11324797  0.58573982     0.22600
C523        C  0.86906245  0.07767392  0.59830943    -0.39400
C524        C  0.88535196  0.08101424  0.62641057     0.21400
N525        N  0.90691854  0.11228148  0.66686625    -0.32700
C526        C  0.91645820  0.07292563  0.66851999    -0.10200
C527        C  0.90326465  0.05256997  0.64374861    -0.29000
N528        N  0.84131108  0.11814866  0.55846994    -0.45600
C529        C  0.83310998  0.15752935  0.55561599    -0.04900
C530        C  0.84165601  0.17801696  0.58147185    -0.22300
H531        H  0.87510531  0.18097640  0.63989412     0.19500
H532        H  0.86839614  0.04959363  0.58666461     0.18300
H533        H  0.90731817  0.02126818  0.63872053     0.14600
H534        H  0.83933822  0.20976899  0.58533224     0.14500
H535        H  0.91355865  0.13442381  0.68215405     0.32600
H536        H  0.83825466  0.09608446  0.54252666     0.35400
C537        C  0.86067543  0.14966947  0.90527590     0.21000
C538        C  0.87773168  0.15669920  0.87724682    -0.38900
C539        C  0.89172458  0.12270854  0.86200139     0.20000
C540        C  0.88837985  0.08485576  0.87382417     0.22600
C541        C  0.87155062  0.07789446  0.90170054    -0.39400
C542        C  0.85820265  0.11169850  0.91699908     0.21400
N543        N  0.84619246  0.17672017  0.92460391    -0.32700
C544        C  0.83516943  0.15568942  0.94882771    -0.10200
C545        C  0.84227030  0.11511112  0.94490029    -0.29000
N546        N  0.90413958  0.05752539  0.85549839    -0.45600
C547        C  0.91805365  0.07772029  0.83170748    -0.04900
C548        C  0.91093172  0.11864937  0.83489100    -0.22300
H549        H  0.88047855  0.18640269  0.86820225     0.19500
H550        H  0.86966600  0.04828430  0.91101659     0.18300
H551        H  0.83687912  0.09137040  0.96050610     0.14600
H552        H  0.91913071  0.14215310  0.81969494     0.14500
H553        H  0.84491862  0.20761706  0.92183527     0.32600
H554        H  0.90589562  0.02684250  0.85921790     0.35400
C555        C  0.64301866  0.33928604  0.98996560     0.21000
C556        C  0.65712892  0.30345204  0.97753257    -0.38900
C557        C  0.69425728  0.28849581  0.98872121     0.20000
C558        C  0.71524980  0.30725381  0.01106484     0.22600
C559        C  0.70155168  0.34349074  0.02309948    -0.39400
C560        C  0.66490759  0.35891414  0.01145783     0.21400
N561        N  0.60830068  0.35934708  0.98347343    -0.32700
C562        C  0.60855308  0.39232077  0.50059809    -0.10200
C563        C  0.64350758  0.39330176  0.51813552    -0.29000
N564        N  0.74878563  0.28605453  0.51865602    -0.45600
C565        C  0.74948670  0.25401425  0.50061573    -0.04900
C566        C  0.71618724  0.25462883  0.98153534    -0.22300
H567        H  0.64039326  0.28827657  0.96046688     0.19500
H568        H  0.71818598  0.35855468  0.54026240     0.18300
H569        H  0.65171289  0.41582432  0.53398626     0.14600
H570        H  0.70857281  0.23269714  0.96509691     0.14500
H571        H  0.58609822  0.35141264  0.96814250     0.32600
H572        H  0.77000208  0.29302766  0.53491665     0.35400
loop_ 
_geom_bond_atom_site_label_1 
_geom_bond_atom_site_label_2 
_geom_bond_distance 
_geom_bond_site_symmetry_2 
_ccdc_geom_bond_type 
C1            N6   1.363       .  A
C1          N288   1.360   1_554  A
C1          C279   1.471       .  S
N2            C3   1.356       .  A
N2          C287   1.360       .  A
C3            N4   1.357       .  A
C3          C258   1.472       .  S
N4          C291   1.358       .  A
C5            N6   1.361       .  A
C5          N290   1.358       .  A
C5          C243   1.474       .  S
C7            N8   1.363       .  A
C7          N298   1.364       .  A
C7          C508   1.472       .  S
N8            C9   1.357       .  A
C9           N10   1.350       .  A
C9          C207   1.466       .  S
N10         C297   1.352       .  A
C11          N12   1.358       .  A
C11         N296   1.352   1_554  A
C11         C186   1.468       .  S
N12         C293   1.364   1_554  A
Zn13         O18   1.992       .  S
Zn13         O22   2.023       .  S
Zn13         O29   2.010       .  S
Zn13        O303   1.948       .  S
Zn14         O19   2.029       .  S
Zn14         O25   2.016       .  S
Zn14        O307   2.041   1_554  S
Zn14         O17   1.981   1_554  S
Zn15         O20   2.007       .  S
Zn15         O23   1.991       .  S
Zn15         O26   1.988       .  S
Zn15         O17   1.942   1_554  S
Zn16         O24   2.060   1_556  S
Zn16         O27   2.042       .  S
Zn16        O314   2.038       .  S
Zn16         O17   1.982       .  S
O17        Zn299   1.948       .  S
O18          C30   1.271       .  A
O19          C31   1.273       .  A
O20          C32   1.271   1_554  A
O21        Zn300   2.041       .  S
O21          C30   1.274       .  A
O22         C318   1.273       .  A
O23          C31   1.270       .  A
O24          C33   1.277       .  A
O25          C34   1.274       .  A
O26          C33   1.271       .  A
O27          C34   1.277   1_556  A
O28        Zn302   2.038       .  S
O28          C35   1.275       .  A
O29          C35   1.273       .  A
C30         C168   1.472       .  S
C31         C150   1.468       .  S
C32         C225   1.471       .  S
C32         O308   1.273       .  A
C33         C114   1.475       .  S
C34         C276   1.470       .  S
C35         C132   1.473       .  S
C36          N37   1.366       .  A
C36          N41   1.360       .  A
C36          C96   1.472       .  S
N37          C38   1.364       .  A
C38          N39   1.357       .  A
C38         C135   1.478       .  S
N39          C40   1.353       .  A
C40          N41   1.354       .  A
C40         C117   1.469       .  S
C42          N43   1.362       .  A
C42          N47   1.361       .  A
C42          C78   1.472       .  S
N43          C44   1.358       .  A
C44          N45   1.355       .  A
C44         C171   1.470       .  S
N45          C46   1.355       .  A
C46          N47   1.357       .  A
C46         C153   1.467       .  S
Zn48         O53   2.048       .  S
Zn48         O57   2.027   1_655  S
Zn48         O64   2.054       .  S
Zn48         O52   1.977       .  S
Zn49         O54   1.986   1_655  S
Zn49         O56   1.999   1_565  S
Zn49         O60   2.019       .  S
Zn49         O52   1.943   1_565  S
Zn50         O55   2.023   1_565  S
Zn50         O58   2.039       .  S
Zn50         O61   2.028       .  S
Zn50         O52   1.980   1_465  S
Zn51         O59   1.994   1_655  S
Zn51         O62   2.022       .  S
Zn51         O63   1.997   1_565  S
Zn51         O52   1.943   1_565  S
O53          C65   1.276       .  A
O54          C66   1.270       .  A
O55          C67   1.274       .  A
O56          C65   1.272       .  A
O57          C67   1.275       .  A
O58          C66   1.274       .  A
O59          C68   1.270       .  A
O60          C69   1.272       .  A
O61          C68   1.273       .  A
O62          C69   1.273       .  A
O63          C70   1.272       .  A
O64          C70   1.277       .  A
C65         C240   1.476       .  S
C66         C189   1.468       .  S
C67          C99   1.468       .  S
C68         C204   1.467       .  S
C69          C81   1.474       .  S
C70         C261   1.476       .  S
C71          N77   1.343       .  A
C71          C76   1.385       .  A
C71          C72   1.402       .  A
C72          C73   1.402       .  A
C72          H83   1.082       .  S
C73          C82   1.377       .  A
C73          C74   1.384       .  A
C74          N80   1.345       .  A
C74          C75   1.405       .  A
C75          C76   1.404       .  A
C75          H84   1.082       .  S
C76          C79   1.379       .  A
N77          C78   1.355       .  A
N77          H87   1.045       .  S
C78          C79   1.397       .  A
C79          H85   1.083       .  S
N80          C81   1.357       .  A
N80          H88   1.045       .  S
C81          C82   1.395       .  A
C82          H86   1.082       .  S
C89          N95   1.348       .  A
C89          C94   1.385       .  A
C89          C90   1.406       .  A
C90          C91   1.406       .  A
C90         H101   1.082       .  S
C91         C100   1.381       .  A
C91          C92   1.385       .  A
C92          N98   1.343       .  A
C92          C93   1.401       .  A
C93          C94   1.401       .  A
C93         H102   1.082       .  S
C94          C97   1.374       .  A
N95          C96   1.356       .  A
N95         H105   1.045       .  S
C96          C97   1.394       .  A
C97         H103   1.083       .  S
N98          C99   1.354       .  A
N98         H106   1.044       .  S
C99         C100   1.396       .  A
C100        H104   1.082       .  S
C107        N113   1.350       .  A
C107        C112   1.384       .  A
C107        C108   1.408       .  A
C108        C109   1.409       .  A
C108        H119   1.082       .  S
C109        C118   1.383       .  A
C109        C110   1.385       .  A
C110        N116   1.340       .  A
C110        C111   1.398       .  A
C111        C112   1.398       .  A
C111        H120   1.083       .  S
C112        C115   1.370       .  A
N113        C114   1.358       .  A
N113        H123   1.044       .  S
C114        C115   1.393       .  A
C115        H121   1.083       .  S
N116        C117   1.353       .  A
N116        H124   1.045       .  S
C117        C118   1.398       .  A
C118        H122   1.082       .  S
C125        N131   1.341       .  A
C125        C130   1.385       .  A
C125        C126   1.400       .  A
C126        C127   1.400       .  A
C126        H137   1.083       .  S
C127        C136   1.372       .  A
C127        C128   1.384       .  A
C128        N134   1.350       .  A
C128        C129   1.409       .  A
C129        C130   1.409       .  A
C129        H138   1.082       .  S
C130        C133   1.384       .  A
N131        C132   1.354       .  A
N131        H141   1.045       .  S
C132        C133   1.398       .  A
C133        H139   1.082       .  S
N134        C135   1.359       .  A
N134        H142   1.045       .  S
C135        C136   1.395       .  A
C136        H140   1.083       .  S
C143        N149   1.346       .  A
C143        C148   1.385       .  A
C143        C144   1.406       .  A
C144        C145   1.406       .  A
C144        H155   1.082       .  S
C145        C154   1.382       .  A
C145        C146   1.385       .  A
C146        N152   1.339       .  A
C146        C147   1.398       .  A
C147        C148   1.397       .  A
C147        H156   1.083       .  S
C148        C151   1.370       .  A
N149        C150   1.357       .  A
N149        H159   1.044       .  S
C150        C151   1.392       .  A
C151        H157   1.083       .  S
N152        C153   1.353       .  A
N152        H160   1.045       .  S
C153        C154   1.397       .  A
C154        H158   1.082       .  S
C161        N167   1.337       .  A
C161        C166   1.385       .  A
C161        C162   1.398       .  A
C162        C163   1.396       .  A
C162        H173   1.083       .  S
C163        C172   1.372       .  A
C163        C164   1.384       .  A
C164        N170   1.348       .  A
C164        C165   1.409       .  A
C165        C166   1.408       .  A
C165        H174   1.082       .  S
C166        C169   1.386       .  A
N167        C168   1.353       .  A
N167        H177   1.045       .  S
C168        C169   1.399       .  A
C169        H175   1.082       .  S
N170        C171   1.358       .  A
N170        H178   1.044       .  S
C171        C172   1.391       .  A
C172        H176   1.083       .  S
C179        N185   1.348       .  A
C179        C184   1.385       .  A
C179        C180   1.408       .  A
C180        C181   1.408       .  A
C180        H191   1.082       .  S
C181        C190   1.384       .  A
C181        C182   1.385       .  A
C182        N188   1.337       .  A
C182        C183   1.396       .  A
C183        C184   1.395       .  A
C183        H192   1.083       .  S
C184        C187   1.367       .  A
N185        C186   1.357       .  A
N185        H195   1.044       .  S
C186        C187   1.391       .  A
C187        H193   1.083       .  S
N188        C189   1.353       .  A
N188        H196   1.045       .  S
C189        C190   1.398       .  A
C190        H194   1.082       .  S
C197        N203   1.345       .  A
C197        C202   1.385       .  A
C197        C198   1.405       .  A
C198        C199   1.404       .  A
C198        H209   1.082       .  S
C199        C208   1.381       .  A
C199        C200   1.385       .  A
C200        N206   1.338       .  A
C200        C201   1.399       .  A
C201        C202   1.398       .  A
C201        H210   1.083       .  S
C202        C205   1.372       .  A
N203        C204   1.356       .  A
N203        H213   1.045       .  S
C204        C205   1.393       .  A
C205        H211   1.083       .  S
N206        C207   1.354       .  A
N206        H214   1.045       .  S
C207        C208   1.395       .  A
C208        H212   1.082       .  S
C215        N221   1.343       .  A
C215        C220   1.385   1_554  A
C215        C216   1.403       .  A
C216        C217   1.402       .  A
C216        H227   1.082       .  S
C217        C226   1.377       .  A
C217        C218   1.385   1_554  A
C218        N510   1.344       .  A
C218        C219   1.403       .  A
C219        C220   1.403       .  A
C219        H514   1.082       .  S
C220        C509   1.378       .  A
N221        C222   1.355   1_554  A
N221        H231   1.046       .  S
C222        C293   1.472       .  S
C222        C509   1.396       .  A
C223        C506   1.378       .  A
C223        C508   1.396       .  A
C223        H229   1.082       .  S
N224        C504   1.344       .  A
N224        C511   1.355       .  A
N224        H232   1.045       .  S
C225        N510   1.355       .  A
C225        C226   1.395   1_556  A
C226        H230   1.082       .  S
H228        C505   1.082       .  S
C233        N239   1.349       .  A
C233        C238   1.384       .  A
C233        C234   1.409       .  A
C234        C235   1.409       .  A
C234        H245   1.082       .  S
C235        C244   1.385       .  A
C235        C236   1.385       .  A
C236        N242   1.341       .  A
C236        C237   1.400       .  A
C237        C238   1.399       .  A
C237        H246   1.082       .  S
C238        C241   1.373       .  A
N239        C240   1.358       .  A
N239        H249   1.044       .  S
C240        C241   1.394       .  A
C241        H247   1.083       .  S
N242        C243   1.354       .  A
N242        H250   1.045       .  S
C243        C244   1.398       .  A
C244        H248   1.082       .  S
C251        N257   1.347       .  A
C251        C256   1.384       .  A
C251        C252   1.410       .  A
C252        C253   1.409       .  A
C252        H263   1.082       .  S
C253        C262   1.387       .  A
C253        C254   1.384       .  A
C254        N260   1.339       .  A
C254        C255   1.400       .  A
C255        C256   1.398       .  A
C255        H264   1.082       .  S
C256        C259   1.376       .  A
N257        C258   1.358       .  A
N257        H267   1.045       .  S
C258        C259   1.392       .  A
C259        H265   1.082       .  S
N260        C261   1.355       .  A
N260        H268   1.045       .  S
C261        C262   1.400       .  A
C262        H266   1.082       .  S
C269        N275   1.346       .  A
C269        C274   1.385       .  A
C269        C270   1.404       .  A
C270        C271   1.404       .  A
C270        H281   1.082       .  S
C271        C280   1.377       .  A
C271        C272   1.385       .  A
C272        N564   1.346       .  A
C272        C273   1.404       .  A
C273        C274   1.404       .  A
C273        H568   1.082       .  S
C274        C563   1.378       .  A
N275        C562   1.355       .  A
N275        H285   1.044       .  S
C276        N561   1.355   1_554  A
C276        C277   1.395       .  A
C277        C560   1.378       .  A
C277        H283   1.082       .  S
N278        C279   1.355       .  A
N278        C558   1.346       .  A
N278        H286   1.045       .  S
C279        C566   1.395   1_554  A
C280        C565   1.395       .  A
C280        H284   1.082       .  S
H282        C559   1.082       .  S
C287        N292   1.363       .  A
C287        C565   1.471       .  S
N288        C289   1.356       .  A
C289        N290   1.357   1_556  A
C289        C544   1.472       .  S
C291        N292   1.361       .  A
C291        C529   1.474       .  S
C293        N294   1.363       .  A
N294        C295   1.357       .  A
C295        N296   1.350       .  A
C295        C493   1.466       .  S
C297        N298   1.358       .  A
C297        C472   1.468       .  S
Zn299       O304   1.992       .  S
Zn299       O308   2.023       .  S
Zn299       O315   2.010       .  S
Zn300       O305   2.029       .  S
Zn300       O311   2.016       .  S
Zn300       O303   1.981       .  S
Zn301       O306   2.007       .  S
Zn301       O309   1.991       .  S
Zn301       O312   1.988       .  S
Zn301       O303   1.942       .  S
Zn302       O310   2.060       .  S
Zn302       O313   2.042       .  S
Zn302       O303   1.982       .  S
O304        C316   1.271       .  A
O305        C317   1.273       .  A
O306        C318   1.271       .  A
O307        C316   1.274       .  A
O309        C317   1.270       .  A
O310        C319   1.277       .  A
O311        C320   1.274       .  A
O312        C319   1.271       .  A
O313        C320   1.277       .  A
O314        C321   1.275       .  A
O315        C321   1.273       .  A
C316        C454   1.472       .  S
C317        C436   1.468       .  S
C318        C511   1.471       .  S
C319        C400   1.475       .  S
C320        C562   1.470       .  S
C321        C418   1.473       .  S
C322        N323   1.366       .  A
C322        N327   1.360       .  A
C322        C382   1.472       .  S
N323        C324   1.364       .  A
C324        N325   1.357       .  A
C324        C421   1.478       .  S
N325        C326   1.353       .  A
C326        N327   1.354       .  A
C326        C403   1.469       .  S
C328        N329   1.362       .  A
C328        N333   1.361       .  A
C328        C364   1.472       .  S
N329        C330   1.358       .  A
C330        N331   1.355       .  A
C330        C457   1.470       .  S
N331        C332   1.355       .  A
C332        N333   1.357       .  A
C332        C439   1.467       .  S
Zn334       O339   2.048       .  S
Zn334       O343   2.027   1_655  S
Zn334       O350   2.054       .  S
Zn334       O338   1.977       .  S
Zn335       O340   1.986   1_655  S
Zn335       O342   1.999   1_565  S
Zn335       O346   2.019       .  S
Zn335       O338   1.943   1_565  S
Zn336       O341   2.023   1_565  S
Zn336       O344   2.039       .  S
Zn336       O347   2.028       .  S
Zn336       O338   1.980   1_465  S
Zn337       O345   1.994   1_655  S
Zn337       O348   2.022       .  S
Zn337       O349   1.997   1_565  S
Zn337       O338   1.943   1_565  S
O339        C351   1.276       .  A
O340        C352   1.270       .  A
O341        C353   1.274       .  A
O342        C351   1.272       .  A
O343        C353   1.275       .  A
O344        C352   1.274       .  A
O345        C354   1.270       .  A
O346        C355   1.272       .  A
O347        C354   1.273       .  A
O348        C355   1.273       .  A
O349        C356   1.272       .  A
O350        C356   1.277       .  A
C351        C526   1.476       .  S
C352        C475   1.468       .  S
C353        C385   1.468       .  S
C354        C490   1.467       .  S
C355        C367   1.473       .  S
C356        C547   1.476       .  S
C357        N363   1.343       .  A
C357        C362   1.385       .  A
C357        C358   1.402       .  A
C358        C359   1.402       .  A
C358        H369   1.082       .  S
C359        C368   1.377       .  A
C359        C360   1.384       .  A
C360        N366   1.345       .  A
C360        C361   1.405       .  A
C361        C362   1.404       .  A
C361        H370   1.082       .  S
C362        C365   1.379       .  A
N363        C364   1.355       .  A
N363        H373   1.045       .  S
C364        C365   1.397       .  A
C365        H371   1.083       .  S
N366        C367   1.357       .  A
N366        H374   1.045       .  S
C367        C368   1.395       .  A
C368        H372   1.082       .  S
C375        N381   1.348       .  A
C375        C380   1.385       .  A
C375        C376   1.406       .  A
C376        C377   1.406       .  A
C376        H387   1.082       .  S
C377        C386   1.381       .  A
C377        C378   1.385       .  A
C378        N384   1.343       .  A
C378        C379   1.401       .  A
C379        C380   1.401       .  A
C379        H388   1.082       .  S
C380        C383   1.374       .  A
N381        C382   1.356       .  A
N381        H391   1.045       .  S
C382        C383   1.394       .  A
C383        H389   1.083       .  S
N384        C385   1.354       .  A
N384        H392   1.044       .  S
C385        C386   1.396       .  A
C386        H390   1.082       .  S
C393        N399   1.350       .  A
C393        C398   1.384       .  A
C393        C394   1.408       .  A
C394        C395   1.409       .  A
C394        H405   1.082       .  S
C395        C404   1.383       .  A
C395        C396   1.385       .  A
C396        N402   1.340       .  A
C396        C397   1.398       .  A
C397        C398   1.398       .  A
C397        H406   1.083       .  S
C398        C401   1.370       .  A
N399        C400   1.358       .  A
N399        H409   1.044       .  S
C400        C401   1.393       .  A
C401        H407   1.083       .  S
N402        C403   1.353       .  A
N402        H410   1.045       .  S
C403        C404   1.398       .  A
C404        H408   1.082       .  S
C411        N417   1.341       .  A
C411        C416   1.385       .  A
C411        C412   1.400       .  A
C412        C413   1.400       .  A
C412        H423   1.083       .  S
C413        C422   1.372       .  A
C413        C414   1.384       .  A
C414        N420   1.350       .  A
C414        C415   1.409       .  A
C415        C416   1.409       .  A
C415        H424   1.082       .  S
C416        C419   1.384       .  A
N417        C418   1.354       .  A
N417        H427   1.045       .  S
C418        C419   1.398       .  A
C419        H425   1.082       .  S
N420        C421   1.359       .  A
N420        H428   1.045       .  S
C421        C422   1.395       .  A
C422        H426   1.083       .  S
C429        N435   1.346       .  A
C429        C434   1.385       .  A
C429        C430   1.406       .  A
C430        C431   1.406       .  A
C430        H441   1.082       .  S
C431        C440   1.382       .  A
C431        C432   1.385       .  A
C432        N438   1.339       .  A
C432        C433   1.398       .  A
C433        C434   1.397       .  A
C433        H442   1.083       .  S
C434        C437   1.370       .  A
N435        C436   1.357       .  A
N435        H445   1.044       .  S
C436        C437   1.392       .  A
C437        H443   1.083       .  S
N438        C439   1.353       .  A
N438        H446   1.045       .  S
C439        C440   1.397       .  A
C440        H444   1.082       .  S
C447        N453   1.337       .  A
C447        C452   1.385       .  A
C447        C448   1.398       .  A
C448        C449   1.396       .  A
C448        H459   1.083       .  S
C449        C458   1.372       .  A
C449        C450   1.384       .  A
C450        N456   1.348       .  A
C450        C451   1.409       .  A
C451        C452   1.408       .  A
C451        H460   1.082       .  S
C452        C455   1.386       .  A
N453        C454   1.353       .  A
N453        H463   1.045       .  S
C454        C455   1.399       .  A
C455        H461   1.082       .  S
N456        C457   1.358       .  A
N456        H464   1.044       .  S
C457        C458   1.391       .  A
C458        H462   1.083       .  S
C465        N471   1.348       .  A
C465        C470   1.385       .  A
C465        C466   1.408       .  A
C466        C467   1.408       .  A
C466        H477   1.082       .  S
C467        C476   1.384       .  A
C467        C468   1.385       .  A
C468        N474   1.337       .  A
C468        C469   1.396       .  A
C469        C470   1.395       .  A
C469        H478   1.083       .  S
C470        C473   1.367       .  A
N471        C472   1.357       .  A
N471        H481   1.044       .  S
C472        C473   1.391       .  A
C473        H479   1.083       .  S
N474        C475   1.353       .  A
N474        H482   1.045       .  S
C475        C476   1.398       .  A
C476        H480   1.082       .  S
C483        N489   1.345       .  A
C483        C488   1.385       .  A
C483        C484   1.405       .  A
C484        C485   1.404       .  A
C484        H495   1.082       .  S
C485        C494   1.381       .  A
C485        C486   1.385       .  A
C486        N492   1.338       .  A
C486        C487   1.399       .  A
C487        C488   1.398       .  A
C487        H496   1.083       .  S
C488        C491   1.372       .  A
N489        C490   1.356       .  A
N489        H499   1.045       .  S
C490        C491   1.393       .  A
C491        H497   1.083       .  S
N492        C493   1.354       .  A
N492        H500   1.045       .  S
C493        C494   1.395       .  A
C494        H498   1.082       .  S
C501        N507   1.343       .  A
C501        C506   1.385       .  A
C501        C502   1.403       .  A
C502        C503   1.402       .  A
C502        H513   1.082       .  S
C503        C512   1.377       .  A
C503        C504   1.385       .  A
C504        C505   1.403       .  A
C505        C506   1.403       .  A
N507        C508   1.355       .  A
N507        H517   1.046       .  S
C509        H515   1.082       .  S
N510        H518   1.045       .  S
C511        C512   1.395       .  A
C512        H516   1.082       .  S
C519        N525   1.349       .  A
C519        C524   1.384       .  A
C519        C520   1.409       .  A
C520        C521   1.409       .  A
C520        H531   1.082       .  S
C521        C530   1.385       .  A
C521        C522   1.385       .  A
C522        N528   1.341       .  A
C522        C523   1.400       .  A
C523        C524   1.399       .  A
C523        H532   1.082       .  S
C524        C527   1.373       .  A
N525        C526   1.358       .  A
N525        H535   1.044       .  S
C526        C527   1.394       .  A
C527        H533   1.083       .  S
N528        C529   1.354       .  A
N528        H536   1.045       .  S
C529        C530   1.398       .  A
C530        H534   1.082       .  S
C537        N543   1.347       .  A
C537        C542   1.384       .  A
C537        C538   1.410       .  A
C538        C539   1.409       .  A
C538        H549   1.082       .  S
C539        C548   1.387       .  A
C539        C540   1.384       .  A
C540        N546   1.339       .  A
C540        C541   1.400       .  A
C541        C542   1.398       .  A
C541        H550   1.082       .  S
C542        C545   1.376       .  A
N543        C544   1.358       .  A
N543        H553   1.045       .  S
C544        C545   1.392       .  A
C545        H551   1.082       .  S
N546        C547   1.355       .  A
N546        H554   1.045       .  S
C547        C548   1.400       .  A
C548        H552   1.082       .  S
C555        N561   1.346       .  A
C555        C560   1.385   1_556  A
C555        C556   1.404       .  A
C556        C557   1.404       .  A
C556        H567   1.082       .  S
C557        C566   1.377       .  A
C557        C558   1.385   1_556  A
C558        C559   1.404       .  A
C559        C560   1.404       .  A
N561        H571   1.044       .  S
C562        C563   1.395       .  A
C563        H569   1.082       .  S
N564        C565   1.355       .  A
N564        H572   1.045       .  S
C566        H570   1.082       .  S
