geometry optimzed in LAMMPS
_audit_creation_date              2020-11-30 
_audit_creation_method            'lammps2cif' 
_symmetry_space_group_name_H-M    'P1' 
_symmetry_Int_Tables_number       1 
_symmetry_cell_setting            triclinic 
loop_ 
_symmetry_equiv_pos_as_xyz 
  x,y,z 
_cell_length_a                    23.70805077 
_cell_length_b                    61.50300775953377 
_cell_length_c                    49.153887852480345 
_cell_angle_alpha                 89.50921641154416 
_cell_angle_beta                  102.90514239170493 
_cell_angle_gamma                 83.40294852457328 
loop_ 
_atom_site_label 
_atom_site_type_symbol 
_atom_site_fract_x 
_atom_site_fract_y 
_atom_site_fract_z 
_atom_site_charge 
N1          N  0.18963425  0.54734917  0.41574251    -0.26600
N2          N  0.19611361  0.54338496  0.44277378    -0.34500
C3          C  0.19487351  0.52200182  0.44742134     0.01700
C4          C  0.18727281  0.51185032  0.42216832     0.07700
C5          C  0.18451062  0.52834706  0.40239637    -0.05400
H6          H  0.19316647  0.51480230  0.46734419     0.08400
H7          H  0.17274431  0.52709113  0.37994986     0.09600
Cu8        Cu  0.33542259  0.57511126  0.43861290     0.44200
Cu9        Cu  0.43281164  0.57618445  0.39528671     0.42000
Cu10       Cu  0.42513355  0.61709398  0.45210205     0.43900
N11         N  0.33895642  0.59394195  0.47281418    -0.34000
N12         N  0.37420247  0.60909547  0.47975493    -0.28300
C13         C  0.36951588  0.61620276  0.50527027    -0.04400
C14         C  0.32966422  0.60458758  0.51441660     0.07800
C15         C  0.31158964  0.59075144  0.49322338     0.01600
H16         H  0.39443987  0.62825426  0.51662575     0.09300
H17         H  0.28245984  0.57845065  0.49304863     0.08400
N18         N  0.45080320  0.62269295  0.41460913    -0.35500
N19         N  0.45277438  0.60850971  0.39453590    -0.27700
C20         C  0.45847168  0.61935321  0.37150792    -0.02900
C21         C  0.45977165  0.64136932  0.37709838     0.05700
C22         C  0.45536088  0.64273741  0.40467101     0.03800
H23         H  0.45526454  0.61219072  0.35127133     0.08900
H24         H  0.44887320  0.65767291  0.41562850     0.07700
N25         N  0.03936520  0.54965655  0.16839253    -0.26600
N26         N  0.07926902  0.54563206  0.15358098    -0.34500
C27         C  0.09038838  0.52405186  0.15112569     0.01700
C28         C  0.05596345  0.51360081  0.16493228     0.07700
C29         C  0.02405831  0.53031848  0.17592272    -0.05400
H30         H  0.11833873  0.51660812  0.13825798     0.08400
H31         H  0.98925969  0.52866588  0.18648870     0.09600
Cu32       Cu  0.10844266  0.56861824  0.13128304     0.44200
Cu33       Cu  0.00651706  0.58198291  0.17347684     0.42000
Cu34       Cu  0.04626631  0.62267300  0.12419444     0.43900
N35         N  0.12186083  0.58936888  0.10100534    -0.34000
N36         N  0.09642207  0.60971343  0.09674376    -0.28300
C37         C  0.38384742  0.61491725  0.07972760    -0.04400
C38         C  0.38936821  0.59889902  0.06049698     0.07800
C39         C  0.36220846  0.58186726  0.06807489     0.01600
H40         H  0.40210811  0.63031272  0.08132943     0.09300
H41         H  0.17253589  0.56802408  0.07886780     0.08400
N42         N  0.00946020  0.63019092  0.15853413    -0.35500
N43         N  0.99573150  0.61608474  0.17588969    -0.27700
C44         C  0.98340794  0.62693337  0.19798306    -0.02900
C45         C  0.98973854  0.64879744  0.19447760     0.05700
C46         C  0.00590416  0.65020865  0.16924033     0.03800
H47         H  0.97633236  0.61911403  0.21653589     0.08900
H48         H  0.02022750  0.66436344  0.16077649     0.07700
N49         N  0.03211502  0.73896413  0.28955724    -0.02800
C50         C  0.04446652  0.72585563  0.31320188    -0.00200
C51         C  0.35002612  0.73339720  0.33931520    -0.23100
C52         C  0.31744381  0.75160974  0.32579340    -0.23300
C53         C  0.98965212  0.75542440  0.29329994    -0.00300
H54         H  0.34568721  0.72621382  0.35882250     0.13400
H55         H  0.28402878  0.76068717  0.33330882     0.13500
N56         N  0.06784807  0.73815514  0.26975752    -0.02800
C57         C  0.06643005  0.72346242  0.24884055    -0.00200
C58         C  0.11173825  0.72544941  0.23606748    -0.23100
C59         C  0.14474258  0.74010228  0.25057248    -0.23300
C60         C  0.11862292  0.74789048  0.27152832    -0.00300
H61         H  0.12349208  0.71527487  0.21988137     0.13400
H62         H  0.18629320  0.74278905  0.24730692     0.13500
N63         N  0.02047828  0.94408803  0.17689602    -0.26600
N64         N  0.05329925  0.95272143  0.16227002    -0.34500
C65         C  0.04732518  0.97454462  0.16471939     0.01700
C66         C  0.30170873  0.98272204  0.17840405     0.07700
C67         C  0.29629260  0.96246982  0.18946332    -0.05400
H68         H  0.06381397  0.98583552  0.15227507     0.08400
H69         H  0.26779233  0.95911922  0.20297716     0.09600
Cu70       Cu  0.09167757  0.93529810  0.13399802     0.44200
Cu71       Cu  0.01128765  0.91107022  0.17683860     0.42000
Cu72       Cu  0.09420559  0.87782807  0.13319248     0.43900
N73         N  0.10295024  0.91749685  0.09974424    -0.34000
N74         N  0.10196222  0.89610571  0.09837117    -0.28300
C75         C  0.09980585  0.89037400  0.07166513    -0.04400
C76         C  0.09915011  0.90922560  0.05568551     0.07800
C77         C  0.10148721  0.92595833  0.07433922     0.01600
H78         H  0.09475286  0.87408325  0.06409788     0.09300
H79         H  0.09803564  0.94331163  0.06946933     0.08400
N80         N  0.07276234  0.86652169  0.16948283    -0.35500
N81         N  0.03610642  0.87774047  0.18236035    -0.27700
C82         C  0.02399995  0.86468435  0.20181015    -0.02900
C83         C  0.05587296  0.84431125  0.20205953     0.05700
C84         C  0.08722958  0.84634319  0.18156918     0.03800
H85         H  0.99305699  0.86963534  0.21441387     0.08900
H86         H  0.11683572  0.83380773  0.17508492     0.07700
N87         N  0.25622832  0.95968741  0.40641587    -0.26600
N88         N  0.28438185  0.96684895  0.43030721    -0.34500
C89         C  0.26230545  0.98756912  0.43320349     0.01700
C90         C  0.21898211  0.99393632  0.40973951     0.07700
C91         C  0.21610956  0.97589138  0.39310734    -0.05400
H92         H  0.27561729  0.99709188  0.45143852     0.08400
H93         H  0.18514727  0.97424861  0.37363358     0.09600
Cu94       Cu  0.34767946  0.94749880  0.45904298     0.44200
Cu95       Cu  0.27085019  0.92735887  0.39558852     0.42000
Cu96       Cu  0.38047214  0.89060856  0.44669072     0.43900
N97         N  0.04585589  0.92694245  0.47853507    -0.34000
N98         N  0.05767182  0.90590966  0.47429461    -0.28300
C99         C  0.08608018  0.89689875  0.00446778    -0.04400
C100        C  0.08696253  0.91237076  0.02495297     0.07800
C101        C  0.06587497  0.93206387  0.01045872     0.01600
H102        H  0.09714529  0.87936676  0.00770868     0.09300
H103        H  0.05649622  0.94776687  0.01925861     0.08400
N104        N  0.33852841  0.88201170  0.40659956    -0.35500
N105        N  0.29550905  0.89456156  0.38978296    -0.27700
C106        C  0.26974773  0.88252901  0.36891650    -0.02900
C107        C  0.29847147  0.86140176  0.37209544     0.05700
C108        C  0.34277342  0.86195795  0.39594126     0.03800
H109        H  0.23067225  0.88848527  0.35351679     0.08900
H110        H  0.37344969  0.84830778  0.40597595     0.07700
N111        N  0.29267860  0.76880639  0.27816572    -0.02800
C112        C  0.30473972  0.77679219  0.25413134    -0.00200
C113        C  0.25298467  0.78390732  0.23510908    -0.23100
C114        C  0.20811370  0.78187064  0.24771177    -0.23300
C115        C  0.23247032  0.77345299  0.27430578    -0.00300
H116        H  0.24858175  0.79249497  0.21528302     0.13400
H117        H  0.16264315  0.78767530  0.23926691     0.13500
N118        N  0.19676477  0.77331197  0.29515471    -0.02800
C119        C  0.19682850  0.78748686  0.31685648    -0.00200
C120        C  0.15221551  0.78460855  0.32960146    -0.23100
C121        C  0.12238219  0.76908899  0.31579597    -0.23300
C122        C  0.14682725  0.76295510  0.29365925    -0.00300
H123        H  0.14171062  0.79327491  0.34725360     0.13400
H124        H  0.08588249  0.76374449  0.32195774     0.13500
N125        N  0.15071824  0.04985308  0.39627380    -0.26600
N126        N  0.13726007  0.04485143  0.42003635    -0.34500
C127        C  0.15424946  0.02356260  0.42664353     0.01700
C128        C  0.17931175  0.01443806  0.40602599     0.07700
C129        C  0.17634725  0.03154153  0.38694796    -0.05400
H130        H  0.15510295  0.01595937  0.44669435     0.08400
H131        H  0.19796886  0.03130780  0.36974256     0.09600
Cu132      Cu  0.11946074  0.06754193  0.44817692     0.44200
Cu133      Cu  0.14953942  0.08252067  0.38383874     0.42000
Cu134      Cu  0.19873055  0.11265848  0.44786352     0.43900
N135        N  0.14461722  0.08549911  0.48278626    -0.34000
N136        N  0.17763641  0.10146171  0.48361493    -0.28300
C137        C  0.19416902  0.10745255  0.51024252    -0.04400
C138        C  0.14143636  0.09379968  0.02463699     0.07800
C139        C  0.13951874  0.08066326  0.50863774     0.01600
H140        H  0.22330121  0.11961867  0.51715397     0.09300
H141        H  0.11775328  0.06724971  0.51396357     0.08400
N142        N  0.18668807  0.12516798  0.40759330    -0.35500
N143        N  0.16259398  0.11560604  0.38460608    -0.27700
C144        C  0.15133851  0.13039791  0.36308863    -0.02900
C145        C  0.17061018  0.15002061  0.37297858     0.05700
C146        C  0.19329415  0.14579698  0.40120942     0.03800
H147        H  0.12997779  0.12710778  0.34195565     0.08900
H148        H  0.21234171  0.15708006  0.41634047     0.07700
N149        N  0.23720162  0.03821790  0.18590024    -0.26600
N150        N  0.20861651  0.03374255  0.16065715    -0.34500
C151        C  0.22386945  0.01276558  0.15550650     0.01700
C152        C  0.26362887  0.00330789  0.17857964     0.07700
C153        C  0.27157513  0.01992562  0.19749937    -0.05400
H154        H  0.21146681  0.00555008  0.13536478     0.08400
H155        H  0.30389037  0.01933432  0.21698041     0.09600
Cu156      Cu  0.16507904  0.05698236  0.13052286     0.44200
Cu157      Cu  0.23648731  0.07034456  0.19967746     0.42000
Cu158      Cu  0.22247422  0.10732806  0.13871712     0.43900
N159        N  0.15671165  0.07898578  0.09762447    -0.34000
N160        N  0.18176047  0.09716956  0.10015905    -0.28300
C161        C  0.17764801  0.10609120  0.07458506    -0.04400
C162        C  0.14874217  0.09269288  0.05510512     0.07800
C163        C  0.13588394  0.07575145  0.07047221     0.01600
H164        H  0.19668145  0.12060037  0.07049202     0.09300
H165        H  0.11678680  0.06127674  0.06251627     0.08400
N166        N  0.23956439  0.11664216  0.17968462    -0.35500
N167        N  0.23905369  0.10421646  0.20168807    -0.27700
C168        C  0.24497307  0.11678551  0.22429038    -0.02900
C169        C  0.25101319  0.13798299  0.21612891     0.05700
C170        C  0.24767982  0.13700454  0.18773213     0.03800
H171        H  0.24556579  0.11079873  0.24510734     0.08900
H172        H  0.25148455  0.15016810  0.17376345     0.07700
N173        N  0.34379698  0.22716461  0.28933815    -0.02800
C174        C  0.34203622  0.21406198  0.26675429    -0.00200
C175        C  0.04211220  0.21823257  0.25164922    -0.23100
C176        C  0.07664714  0.23236625  0.26629372    -0.23300
C177        C  0.05519096  0.23810087  0.28955215    -0.00300
H178        H  0.04972412  0.20964572  0.23342437     0.13400
H179        H  0.11425335  0.23706955  0.26018457     0.13500
N180        N  0.25156461  0.23207408  0.30886612    -0.02800
C181        C  0.24061140  0.22368734  0.33289118    -0.00200
C182        C  0.29295660  0.21507016  0.35051856    -0.23100
C183        C  0.33593064  0.21561766  0.33632088    -0.23300
C184        C  0.31032419  0.22550911  0.31073016    -0.00300
H185        H  0.29803920  0.20579541  0.36992444     0.13400
H186        H  0.38090889  0.20880895  0.34342916     0.13500
N187        N  0.04145831  0.45498696  0.16744283    -0.26600
N188        N  0.05080014  0.45811641  0.14232180    -0.34500
C189        C  0.05440747  0.47927336  0.13781710     0.01700
C190        C  0.04658432  0.49046854  0.16107387     0.07700
C191        C  0.03807650  0.47461894  0.17967779    -0.05400
H192        H  0.06463990  0.48586166  0.11925265     0.08400
H193        H  0.03377450  0.47693906  0.20094362     0.09600
Cu194      Cu  0.06670120  0.43391663  0.11593272     0.44200
Cu195      Cu  0.04312109  0.42284994  0.18211948     0.42000
Cu196      Cu  0.08978196  0.37888880  0.13259057     0.43900
N197        N  0.09425453  0.41189948  0.08943526    -0.34000
N198        N  0.10437867  0.39060099  0.09474279    -0.28300
C199        C  0.12632062  0.38115071  0.07385117    -0.04400
C200        C  0.13026964  0.39768229  0.05497620     0.07800
C201        C  0.10945342  0.41679543  0.06574393     0.01600
H202        H  0.14100679  0.36388891  0.07318873     0.09300
H203        H  0.10725427  0.43330707  0.05747726     0.08400
N204        N  0.07189896  0.37380836  0.17214996    -0.35500
N205        N  0.05590259  0.38878696  0.18919886    -0.27700
C206        C  0.05263951  0.37865133  0.21316387    -0.02900
C207        C  0.06672787  0.35638497  0.21110226     0.05700
C208        C  0.07877994  0.35395909  0.18498213     0.03800
H209        H  0.04315507  0.38698185  0.23121096     0.08900
H210        H  0.09424794  0.33886245  0.17642735     0.07700
N211        N  0.12425042  0.39698316  0.48530544    -0.26600
N212        N  0.09639393  0.41698418  0.48106941    -0.34500
C213        C  0.17821048  0.41490477  0.02069774     0.01700
C214        C  0.15724315  0.39710814  0.03058219     0.07700
C215        C  0.16131385  0.38108821  0.01101272    -0.05400
H216        H  0.18017895  0.43086814  0.02967672     0.08400
H217        H  0.14618209  0.36513794  0.01073511     0.09600
Cu218      Cu  0.10085655  0.43760962  0.44886414     0.44200
Cu219      Cu  0.16745356  0.38362224  0.45532005     0.42000
Cu220      Cu  0.18456504  0.42278997  0.39897541     0.43900
N221        N  0.13240308  0.46005431  0.42694544    -0.34000
N222        N  0.16420358  0.45517065  0.40845859    -0.28300
C223        C  0.18575110  0.47341259  0.40187150    -0.04400
C224        C  0.16721085  0.49023283  0.41759273     0.07800
C225        C  0.13357321  0.48114759  0.43309956     0.01600
H226        H  0.21656759  0.47389430  0.38869699     0.09300
H227        H  0.11472729  0.48888584  0.44923677     0.08400
N228        N  0.19758742  0.38879487  0.39801976    -0.35500
N229        N  0.19258670  0.37507691  0.41809000    -0.27700
C230        C  0.19735099  0.35457117  0.40889320    -0.02900
C231        C  0.20537374  0.35529411  0.38188057     0.05700
C232        C  0.20552699  0.37726820  0.37570183     0.03800
H233        H  0.19010194  0.34030953  0.42009497     0.08900
H234        H  0.20657272  0.38450357  0.35570385     0.07700
N235        N  0.13358941  0.26287765  0.31249508    -0.02800
C236        C  0.13693094  0.27681266  0.33424518    -0.00200
C237        C  0.09374895  0.27420240  0.34814485    -0.23100
C238        C  0.05989456  0.25990799  0.33356577    -0.23300
C239        C  0.08412350  0.25276579  0.31165309    -0.00300
H240        H  0.08285343  0.28414671  0.36474612     0.13400
H241        H  0.35160913  0.25525141  0.33856936     0.13500
N242        N  0.16650789  0.26281708  0.29156799    -0.02800
C243        C  0.15195828  0.27624838  0.26797509    -0.00200
C244        C  0.18850711  0.27025684  0.25051860    -0.23100
C245        C  0.22759638  0.25336580  0.26356534    -0.23300
C246        C  0.21365203  0.24815397  0.28845510    -0.00300
H247        H  0.19081133  0.27899114  0.23164665     0.13400
H248        H  0.26485163  0.24716784  0.25604330     0.13500
C249        C  0.12675712  0.31758862  0.33111147    -0.01200
C250        C  0.16389585  0.29757912  0.33798801     0.08500
C251        C  0.21935636  0.29799924  0.35583450    -0.01300
C252        C  0.23607049  0.31773210  0.36769966    -0.01300
C253        C  0.19704540  0.33711875  0.36236525     0.08600
C254        C  0.14404844  0.33731321  0.34249107    -0.01500
Br255      Br  0.09158196  0.36410528  0.33300323    -0.00100
Br256      Br  0.04773756  0.31783377  0.30985686    -0.00100
Br257      Br  0.31159738  0.31824572  0.39242567    -0.00100
Br258      Br  0.26963380  0.27136120  0.36722100    -0.00100
C259        C  0.15161836  0.31660289  0.26793326    -0.01200
C260        C  0.11883910  0.29861164  0.26356811     0.08500
C261        C  0.06236131  0.30198825  0.24596955    -0.01300
C262        C  0.04227563  0.32203371  0.23081605    -0.01300
C263        C  0.07818703  0.33890821  0.23321154     0.08600
C264        C  0.13088136  0.33679440  0.25344117    -0.01500
Br265      Br  0.17782741  0.36074643  0.25904748    -0.00100
Br266      Br  0.22952525  0.31250603  0.29011068    -0.00100
Br267      Br  0.96654721  0.32622471  0.20557159    -0.00100
Br268      Br  0.01326974  0.27907291  0.24081416    -0.00100
C269        C  0.30719613  0.15573695  0.25842383    -0.01200
C270        C  0.26417962  0.15748789  0.23317519     0.08500
C271        C  0.23998817  0.17857225  0.22179358    -0.01300
C272        C  0.26541210  0.19717332  0.23251942    -0.01300
C273        C  0.30683767  0.19568050  0.25832425     0.08600
C274        C  0.32562602  0.17481333  0.27161422    -0.01500
Br275      Br  0.04453571  0.17430618  0.30865130    -0.00100
Br276      Br  0.34767232  0.12762364  0.27347917    -0.00100
Br277      Br  0.24786653  0.22364539  0.20938339    -0.00100
Br278      Br  0.17041027  0.18241661  0.19206531    -0.00100
C279        C  0.18352041  0.17184713  0.33128743    -0.01200
C280        C  0.16933485  0.17117179  0.35767625     0.08500
C281        C  0.15774855  0.19122525  0.37041316    -0.01300
C282        C  0.17362994  0.21060374  0.36035384    -0.01300
C283        C  0.19126769  0.21107447  0.33467608     0.08600
C284        C  0.18648153  0.19217926  0.31865034    -0.01500
Br285      Br  0.18766472  0.19350583  0.28002344    -0.00100
Br286      Br  0.20406990  0.14546490  0.31284362    -0.00100
Br287      Br  0.18285004  0.23459280  0.38508677    -0.00100
Br288      Br  0.12064832  0.19254729  0.40173233    -0.00100
C289        C  0.27689844  0.82222262  0.37186211    -0.01200
C290        C  0.27874651  0.84168216  0.35681189     0.08500
C291        C  0.25853476  0.84242507  0.32742647    -0.01300
C292        C  0.23495475  0.82427621  0.31357194    -0.01300
C293        C  0.23647437  0.80425337  0.32837723     0.08600
C294        C  0.25978562  0.80339209  0.35777090    -0.01500
Br295      Br  0.26281007  0.77701710  0.38033323    -0.00100
Br296      Br  0.28661394  0.82203195  0.41208277    -0.00100
Br297      Br  0.20021108  0.82771266  0.27438965    -0.00100
Br298      Br  0.26297750  0.86825425  0.30564599    -0.00100
C299        C  0.37750552  0.82578779  0.25119760    -0.01200
C300        C  0.04904118  0.82405415  0.21738481     0.08500
C301        C  0.04058873  0.80447891  0.20300694    -0.01300
C302        C  0.02444935  0.78649938  0.21609894    -0.01300
C303        C  0.35656550  0.78754832  0.25086289     0.08600
C304        C  0.36630066  0.80707050  0.26510342    -0.01500
Br305      Br  0.35983293  0.80889318  0.30313584    -0.00100
Br306      Br  0.38618395  0.85246705  0.27152878    -0.00100
Br307      Br  0.01166681  0.76079682  0.19480788    -0.00100
Br308      Br  0.03914003  0.80297328  0.16346921    -0.00100
C309        C  0.97991558  0.70386056  0.22668760    -0.01200
C310        C  0.03625086  0.70320680  0.24422187     0.08500
C311        C  0.07101011  0.68255553  0.24972159    -0.01300
C312        C  0.05176568  0.66374529  0.23626775    -0.01300
C313        C  0.99895003  0.66545111  0.21608158     0.08600
C314        C  0.96142945  0.68512053  0.21269777    -0.01500
Br315      Br  0.88573198  0.68644001  0.18747684    -0.00100
Br316      Br  0.92890501  0.73037628  0.21931497    -0.00100
Br317      Br  0.10106699  0.63608597  0.24324699    -0.00100
Br318      Br  0.14932469  0.68017746  0.27230656    -0.00100
C319        C  0.14588278  0.67740925  0.34777178    -0.01200
C320        C  0.44647788  0.66026150  0.35662679     0.08500
C321        C  0.39073542  0.66441942  0.33862790    -0.01300
C322        C  0.37295946  0.68484094  0.32422875    -0.01300
C323        C  0.07198014  0.70289002  0.31694017     0.08600
C324        C  0.12867982  0.69799643  0.33386830    -0.01500
Br325      Br  0.18128343  0.71989752  0.34034742    -0.00100
Br326      Br  0.22162726  0.67122595  0.37275053    -0.00100
Br327      Br  0.29374821  0.69124532  0.30304359    -0.00100
Br328      Br  0.33583908  0.64316532  0.33580584    -0.00100
N329        N  0.22649464  0.54633495  0.91913223    -0.26600
N330        N  0.24443710  0.54403024  0.94658327    -0.34500
C331        C  0.25860201  0.52271245  0.95373524     0.01700
C332        C  0.24855238  0.51067773  0.92985167     0.07700
C333        C  0.22861702  0.52622913  0.90812342    -0.05400
H334        H  0.27045064  0.51638444  0.97510337     0.08400
H335        H  0.21246636  0.52309586  0.88631405     0.09600
Cu336      Cu  0.49702311  0.56242887  0.98038646     0.44200
Cu337      Cu  0.47904325  0.57601385  0.90749891     0.42000
Cu338      Cu  0.44425622  0.61711033  0.95811571     0.43900
N339        N  0.46512346  0.58463337  0.00584998    -0.34000
N340        N  0.44485376  0.60516033  0.99800455    -0.28300
C341        C  0.41857189  0.61425433  0.01756810    -0.04400
C342        C  0.42188442  0.59841411  0.03829434     0.07800
C343        C  0.45151818  0.57990462  0.03009704     0.01600
H344        H  0.39411372  0.63038158  0.01552292     0.09300
H345        H  0.45879198  0.56370813  0.03994226     0.08400
N346        N  0.44369734  0.62390554  0.91637314    -0.35500
N347        N  0.45621208  0.60935715  0.89820634    -0.27700
C348        C  0.45161404  0.61973190  0.87338841    -0.02900
C349        C  0.43567667  0.64178536  0.87617196     0.05700
C350        C  0.43096822  0.64382857  0.90357185     0.03800
H351        H  0.45998321  0.61185418  0.85485395     0.08900
H352        H  0.41967174  0.65879852  0.91356504     0.07700
N353        N  0.98089563  0.54989001  0.66260527    -0.26600
N354        N  0.99773641  0.54554935  0.63919423    -0.34500
C355        C  0.99764295  0.52426970  0.63432309     0.01700
C356        C  0.98030833  0.51423158  0.65568676     0.07700
C357        C  0.97015676  0.53090944  0.67361245    -0.05400
H358        H  0.00944510  0.51666039  0.61629157     0.08400
H359        H  0.95448683  0.52949101  0.69252585     0.09600
Cu360      Cu  0.02125906  0.56762406  0.61382709     0.44200
Cu361      Cu  0.97302118  0.58235363  0.67499802     0.42000
Cu362      Cu  0.01345271  0.62264438  0.62391631     0.43900
N363        N  0.04927268  0.58805872  0.58803852    -0.34000
N364        N  0.04564817  0.60943421  0.59067530    -0.28300
C365        C  0.32315250  0.61834505  0.56347743    -0.04400
C366        C  0.31245262  0.60433502  0.54145615     0.07800
C367        C  0.28420088  0.58822473  0.55064802     0.01600
H368        H  0.34616206  0.63262831  0.56452827     0.09300
H369        H  0.08147287  0.56582547  0.56015702     0.08400
N370        N  0.98765995  0.62993513  0.66111508    -0.35500
N371        N  0.97424664  0.61621244  0.67905734    -0.27700
C372        C  0.96817752  0.62713847  0.70210033    -0.02900
C373        C  0.97830531  0.64857599  0.69852010     0.05700
C374        C  0.99022637  0.64970794  0.67237009     0.03800
H375        H  0.96175170  0.61958900  0.72096349     0.08900
H376        H  0.00501412  0.66344636  0.66322048     0.07700
N377        N  0.03357860  0.73823753  0.79211888    -0.02800
C378        C  0.04493644  0.72507109  0.81576390    -0.00200
C379        C  0.34476061  0.73277232  0.83743326    -0.23100
C380        C  0.31581787  0.75188597  0.82486140    -0.23300
C381        C  0.98966704  0.75451419  0.79505063    -0.00300
H382        H  0.34042690  0.72575966  0.85703049     0.13400
H383        H  0.28635014  0.76179992  0.83305384     0.13500
N384        N  0.06955113  0.73686403  0.77241927    -0.02800
C385        C  0.07188542  0.72046058  0.75380035    -0.00200
C386        C  0.11952608  0.72122456  0.74226874    -0.23100
C387        C  0.15032965  0.73694195  0.75551366    -0.23300
C388        C  0.12040870  0.74649175  0.77420697    -0.00300
H389        H  0.13376894  0.70986444  0.72777862     0.13400
H390        H  0.19316407  0.73920060  0.75349434     0.13500
N391        N  0.01182021  0.94236482  0.67394430    -0.26600
N392        N  0.04162206  0.95083315  0.65764988    -0.34500
C393        C  0.03503404  0.97272480  0.65918728     0.01700
C394        C  0.32791784  0.98008813  0.68046066     0.07700
C395        C  0.31555588  0.96007099  0.68910183    -0.05400
H396        H  0.04942238  0.98379096  0.64562493     0.08400
H397        H  0.28239877  0.95728529  0.70026841     0.09600
Cu398      Cu  0.07716260  0.93286299  0.62900811     0.44200
Cu399      Cu  0.00471331  0.90904106  0.67520995     0.42000
Cu400      Cu  0.08172268  0.87537200  0.62864197     0.43900
N401        N  0.08730711  0.91502763  0.59473095    -0.34000
N402        N  0.08705109  0.89361031  0.59337757    -0.28300
C403        C  0.08533568  0.88790586  0.56667586    -0.04400
C404        C  0.08432947  0.90683794  0.55076214     0.07800
C405        C  0.08583894  0.92354403  0.56940039     0.01600
H406        H  0.08163434  0.87153529  0.55914348     0.09300
H407        H  0.08261259  0.94090661  0.56465447     0.08400
N408        N  0.06387979  0.86425248  0.66586778    -0.35500
N409        N  0.02893652  0.87544863  0.67966737    -0.27700
C410        C  0.01933807  0.86232893  0.69973217    -0.02900
C411        C  0.05163863  0.84203062  0.69964391     0.05700
C412        C  0.08008104  0.84414410  0.67803794     0.03800
H413        H  0.99024929  0.86729324  0.71323167     0.08900
H414        H  0.10993284  0.83190994  0.67122946     0.07700
N415        N  0.25173227  0.95948428  0.90285065    -0.26600
N416        N  0.28093877  0.96748537  0.92590269    -0.34500
C417        C  0.25810886  0.98821537  0.92807978     0.01700
C418        C  0.21298339  0.99365414  0.90504396     0.07700
C419        C  0.20985201  0.97506354  0.88942115    -0.05400
H420        H  0.27154909  0.99825907  0.94578266     0.08400
H421        H  0.17751578  0.97260398  0.87071190     0.09600
Cu422      Cu  0.34470348  0.94881957  0.95517854     0.44200
Cu423      Cu  0.26793745  0.92696079  0.89366914     0.42000
Cu424      Cu  0.38019648  0.89153364  0.94538519     0.43900
N425        N  0.05265852  0.92835135  0.98305361    -0.34000
N426        N  0.06528193  0.90727189  0.97922978    -0.28300
C427        C  0.07501220  0.89502546  0.49936627    -0.04400
C428        C  0.07446265  0.91018651  0.52015611     0.07800
C429        C  0.05608860  0.93015944  0.50601690     0.01600
H430        H  0.08496884  0.87742965  0.50221106     0.09300
H431        H  0.04675543  0.94579764  0.51497262     0.08400
N432        N  0.33939418  0.88231809  0.90538528    -0.35500
N433        N  0.29557366  0.89445052  0.88850487    -0.27700
C434        C  0.27052135  0.88215156  0.86784056    -0.02900
C435        C  0.30042854  0.86126501  0.87116901     0.05700
C436        C  0.34474976  0.86220743  0.89493543     0.03800
H437        H  0.23095919  0.88773340  0.85254430     0.08900
H438        H  0.37595534  0.84875363  0.90512556     0.07700
N439        N  0.28938961  0.76850730  0.77725336    -0.02800
C440        C  0.30008280  0.77558681  0.75257188    -0.00200
C441        C  0.24749925  0.78225788  0.73389071    -0.23100
C442        C  0.20361806  0.78075679  0.74742994    -0.23300
C443        C  0.22957985  0.77329332  0.77427249    -0.00300
H444        H  0.24194176  0.79022928  0.71357823     0.13400
H445        H  0.15795296  0.78633548  0.73937956     0.13500
N446        N  0.19548984  0.77324433  0.79581780    -0.02800
C447        C  0.19596225  0.78762889  0.81729566    -0.00200
C448        C  0.15182903  0.78486340  0.83045395    -0.23100
C449        C  0.12195986  0.76911854  0.81717161    -0.23300
C450        C  0.14629998  0.76269374  0.79509092    -0.00300
H451        H  0.14191375  0.79365342  0.84813745     0.13400
H452        H  0.08602302  0.76359172  0.82379116     0.13500
N453        N  0.14303587  0.04919046  0.89400961    -0.26600
N454        N  0.12843384  0.04315149  0.91710328    -0.34500
C455        C  0.14496321  0.02166581  0.92230713     0.01700
C456        C  0.17120583  0.01354569  0.90153933     0.07700
C457        C  0.16928115  0.03144053  0.88384253    -0.05400
H458        H  0.14532599  0.01325427  0.94178848     0.08400
H459        H  0.19229808  0.03209217  0.86722091     0.09600
Cu460      Cu  0.10960661  0.06456802  0.94654315     0.44200
Cu461      Cu  0.14305119  0.08215833  0.88354877     0.42000
Cu462      Cu  0.18013658  0.11273040  0.94789108     0.43900
N463        N  0.12573409  0.08351728  0.98099602    -0.34000
N464        N  0.15444890  0.10079530  0.98236305    -0.28300
C465        C  0.16453732  0.10766954  0.00878106    -0.04400
C466        C  0.17067800  0.09429290  0.52674516     0.07800
C467        C  0.11712340  0.07876344  0.00630577     0.01600
H468        H  0.18920048  0.12104671  0.01612128     0.09300
H469        H  0.09768516  0.06459044  0.01125586     0.08400
N470        N  0.17926237  0.12465850  0.90808362    -0.35500
N471        N  0.15846605  0.11494386  0.88470180    -0.27700
C472        C  0.15225385  0.12928715  0.86304427    -0.02900
C473        C  0.17173559  0.14883011  0.87314639     0.05700
C474        C  0.18939608  0.14491950  0.90180384     0.03800
H475        H  0.13332571  0.12580993  0.84165751     0.08900
H476        H  0.20678301  0.15625237  0.91726694     0.07700
N477        N  0.26364830  0.03570736  0.68707759    -0.26600
N478        N  0.23861607  0.03165642  0.66111475    -0.34500
C479        C  0.25478789  0.01082630  0.65578949     0.01700
C480        C  0.29139297  0.00107890  0.67956548     0.07700
C481        C  0.29656823  0.01728335  0.69909844    -0.05400
H482        H  0.24484385  0.00387201  0.63536600     0.08400
H483        H  0.32581104  0.01630091  0.71952007     0.09600
Cu484      Cu  0.19840251  0.05543736  0.63139964     0.44200
Cu485      Cu  0.26003971  0.06753434  0.70125513     0.42000
Cu486      Cu  0.25798701  0.10512102  0.64134779     0.43900
N487        N  0.19244383  0.07773150  0.59935828    -0.34000
N488        N  0.21873321  0.09561777  0.60225504    -0.28300
C489        C  0.21374017  0.10504300  0.57685541    -0.04400
C490        C  0.18271856  0.09225163  0.55725665     0.07800
C491        C  0.16989627  0.07516290  0.57228055     0.01600
H492        H  0.23226775  0.11972679  0.57297061     0.09300
H493        H  0.14867762  0.06117144  0.56412111     0.08400
N494        N  0.26533212  0.11391327  0.68225510    -0.35500
N495        N  0.26023297  0.10135054  0.70334115    -0.27700
C496        C  0.25916573  0.11389154  0.72562818    -0.02900
C497        C  0.26517746  0.13523328  0.71826098     0.05700
C498        C  0.26931423  0.13439451  0.69069726     0.03800
H499        H  0.25479510  0.10779844  0.74565746     0.08900
H500        H  0.27502451  0.14779236  0.67755111     0.07700
N501        N  0.34667698  0.22578739  0.78979379    -0.02800
C502        C  0.34636445  0.21232714  0.76765362    -0.00200
C503        C  0.04382519  0.21681705  0.74947585    -0.23100
C504        C  0.07851436  0.23115686  0.76352526    -0.23300
C505        C  0.05750149  0.23733686  0.78677134    -0.00300
H506        H  0.05087024  0.20799957  0.73132053     0.13400
H507        H  0.11544300  0.23584838  0.75682946     0.13500
N508        N  0.25224189  0.23062568  0.80748875    -0.02800
C509        C  0.23984867  0.22270800  0.83142636    -0.00200
C510        C  0.29158309  0.21496486  0.85014479    -0.23100
C511        C  0.33588722  0.21552707  0.83681473    -0.23300
C512        C  0.31158323  0.22458003  0.81060144    -0.00300
H513        H  0.29578555  0.20622363  0.86985594     0.13400
H514        H  0.38103919  0.20931538  0.84497823     0.13500
N515        N  0.99246548  0.45514507  0.66631151    -0.26600
N516        N  0.97469341  0.45777926  0.63890157    -0.34500
C517        C  0.96132380  0.47910171  0.63205943     0.01700
C518        C  0.97182961  0.49088230  0.65604358     0.07700
C519        C  0.99126660  0.47515590  0.67762790    -0.05400
H520        H  0.95147544  0.48565675  0.61080338     0.08400
H521        H  0.00895933  0.47808939  0.69936461     0.09600
Cu522      Cu  0.98819513  0.43465025  0.61021196     0.44200
Cu523      Cu  0.02514059  0.42406796  0.68453466     0.42000
Cu524      Cu  0.06659714  0.38451763  0.63198924     0.43900
N525        N  0.02767614  0.41575688  0.58361132    -0.34000
N526        N  0.05935340  0.39680596  0.59166454    -0.28300
C527        C  0.08390459  0.38933327  0.57069745    -0.04400
C528        C  0.06674274  0.40456809  0.54850845     0.07800
C529        C  0.03118714  0.42105459  0.55757264     0.01600
H530        H  0.11323990  0.37435495  0.57182054     0.09300
H531        H  0.01072856  0.43618292  0.54642479     0.08400
N532        N  0.06193454  0.37656457  0.67263767    -0.35500
N533        N  0.04868091  0.39026213  0.69160526    -0.27700
C534        C  0.05196106  0.37869031  0.71549438    -0.02900
C535        C  0.06722273  0.35680852  0.71109516     0.05700
C536        C  0.07333237  0.35612547  0.68387156     0.03800
H537        H  0.04460497  0.38570166  0.73469566     0.08900
H538        H  0.08671420  0.34180491  0.67318180     0.07700
N539        N  0.18370542  0.38953538  0.99071618    -0.26600
N540        N  0.19425477  0.40965974  0.99697998    -0.34500
C541        C  0.07170842  0.42226718  0.50247530     0.01700
C542        C  0.08443414  0.40480027  0.52152494     0.07700
C543        C  0.11801162  0.38891092  0.51002789    -0.05400
H544        H  0.04795021  0.43806423  0.50441126     0.08400
H545        H  0.13676784  0.37287340  0.51902634     0.09600
Cu546      Cu  0.22398568  0.42989555  0.97141454     0.44200
Cu547      Cu  0.19641639  0.37861570  0.95222837     0.42000
Cu548      Cu  0.21990650  0.42203987  0.89981010     0.43900
N549        N  0.23937283  0.45369695  0.94556257    -0.34000
N550        N  0.23364820  0.45231428  0.91832373    -0.28300
C551        C  0.23774523  0.47237742  0.90776541    -0.04400
C552        C  0.24711178  0.48667149  0.92978793     0.07800
C553        C  0.24818802  0.47404031  0.95323494     0.01600
H554        H  0.23292138  0.47638036  0.88582956     0.09300
H555        H  0.25135573  0.47949078  0.97432225     0.08400
N556        N  0.21568528  0.38834083  0.89315389    -0.35500
N557        N  0.20949554  0.37366420  0.91195167    -0.27700
C558        C  0.20869203  0.35395202  0.90052295    -0.02900
C559        C  0.21425396  0.35593538  0.87332054     0.05700
C560        C  0.21836785  0.37800662  0.86920174     0.03800
H561        H  0.20143029  0.33928020  0.91089663     0.08900
H562        H  0.22126008  0.38606603  0.84999318     0.07700
N563        N  0.13466750  0.26286527  0.80871695    -0.02800
C564        C  0.13441231  0.27875808  0.82810513    -0.00200
C565        C  0.08865254  0.27765255  0.84082241    -0.23100
C566        C  0.05651804  0.26235088  0.82743239    -0.23300
C567        C  0.08462949  0.25311806  0.80777378    -0.00300
H568        H  0.07543207  0.28897157  0.85562533     0.13400
H569        H  0.35222037  0.25458832  0.83838406     0.13500
N570        N  0.16885037  0.26152445  0.78828898    -0.02800
C571        C  0.15520398  0.27401799  0.76395485    -0.00200
C572        C  0.19093929  0.26659344  0.74669317    -0.23100
C573        C  0.22874667  0.24971960  0.76071059    -0.23300
C574        C  0.21470857  0.24595035  0.78597936    -0.00300
H575        H  0.19395746  0.27440834  0.72732883     0.13400
H576        H  0.26565293  0.24268138  0.75364864     0.13500
C577        C  0.13043123  0.31955169  0.82327997    -0.01200
C578        C  0.16441658  0.29893994  0.83106731     0.08500
C579        C  0.22047665  0.29858301  0.84857575    -0.01300
C580        C  0.24114981  0.31819753  0.85893549    -0.01300
C581        C  0.20502664  0.33827250  0.85301612     0.08600
C582        C  0.15156593  0.33910279  0.83342535    -0.01500
Br583      Br  0.10370268  0.36679381  0.82305096    -0.00100
Br584      Br  0.05054154  0.32128350  0.80260439    -0.00100
Br585      Br  0.31763186  0.31765160  0.88315828    -0.00100
Br586      Br  0.26472961  0.27130169  0.86286389    -0.00100
C587        C  0.15922793  0.31412013  0.76232793    -0.01200
C588        C  0.12446785  0.29668730  0.75879904     0.08500
C589        C  0.06680343  0.30066567  0.74251487    -0.01300
C590        C  0.04582550  0.32127660  0.72893875    -0.01300
C591        C  0.08226464  0.33800603  0.73132963     0.08600
C592        C  0.13794879  0.33475871  0.74917512    -0.01500
Br593      Br  0.18754519  0.35789115  0.75316450    -0.00100
Br594      Br  0.23929713  0.30884691  0.78198674    -0.00100
Br595      Br  0.96783872  0.32648292  0.70587443    -0.00100
Br596      Br  0.01683943  0.27796609  0.73711902    -0.00100
C597        C  0.31145338  0.15391929  0.76177742    -0.01200
C598        C  0.27227971  0.15491042  0.73542537     0.08500
C599        C  0.24859416  0.17557557  0.72270028    -0.01300
C600        C  0.27300162  0.19445878  0.73284548    -0.01300
C601        C  0.31172986  0.19379188  0.75941401     0.08600
C602        C  0.32842532  0.17341261  0.77423984    -0.01500
Br603      Br  0.04674057  0.17380192  0.80787920    -0.00100
Br604      Br  0.34834295  0.12617925  0.77973089    -0.00100
Br605      Br  0.25937034  0.21969310  0.70760689    -0.00100
Br606      Br  0.18186562  0.17823267  0.69146164    -0.00100
C607        C  0.18633160  0.17019827  0.83112787    -0.01200
C608        C  0.17206268  0.16986701  0.85760665     0.08500
C609        C  0.15893871  0.19021488  0.86950423    -0.01300
C610        C  0.17223523  0.20968821  0.85831481    -0.01300
C611        C  0.19105131  0.20972417  0.83297964     0.08600
C612        C  0.18858089  0.19038189  0.81782584    -0.01500
Br613      Br  0.18913979  0.19132246  0.77905362    -0.00100
Br614      Br  0.20682763  0.14362990  0.81305913    -0.00100
Br615      Br  0.17279515  0.23546738  0.88011566    -0.00100
Br616      Br  0.12093804  0.19211598  0.90050939    -0.00100
C617        C  0.27875618  0.82216379  0.87161290    -0.01200
C618        C  0.28089751  0.84142520  0.85625698     0.08500
C619        C  0.26010283  0.84204439  0.82690776    -0.01300
C620        C  0.23556391  0.82397386  0.81337236    -0.01300
C621        C  0.23637935  0.80419292  0.82848492     0.08600
C622        C  0.26045387  0.80338547  0.85781156    -0.01500
Br623      Br  0.26324793  0.77717463  0.88065791    -0.00100
Br624      Br  0.28950514  0.82227788  0.91187548    -0.00100
Br625      Br  0.20026904  0.82715953  0.77422250    -0.00100
Br626      Br  0.26444134  0.86770419  0.80479334    -0.00100
C627        C  0.37320297  0.82434298  0.74851390    -0.01200
C628        C  0.04962492  0.82200312  0.71681453     0.08500
C629        C  0.04430553  0.80145015  0.70430203    -0.01300
C630        C  0.03026772  0.78383054  0.71902692    -0.01300
C631        C  0.35143183  0.78626169  0.74854759     0.08600
C632        C  0.36215687  0.80576960  0.76268606    -0.01500
Br633      Br  0.35889235  0.80765196  0.80114510    -0.00100
Br634      Br  0.38143967  0.85127865  0.76830683    -0.00100
Br635      Br  0.01703081  0.75709612  0.69993526    -0.00100
Br636      Br  0.04516946  0.79763538  0.66532916    -0.00100
C637        C  0.98097767  0.70312924  0.73256573    -0.01200
C638        C  0.03847222  0.70101494  0.74894010     0.08500
C639        C  0.06986199  0.67969617  0.75334005    -0.01300
C640        C  0.04626328  0.66168368  0.73965296    -0.01300
C641        C  0.99270774  0.66492680  0.72001521     0.08600
C642        C  0.95888267  0.68542548  0.71743847    -0.01500
Br643      Br  0.88346431  0.68942828  0.69178364    -0.00100
Br644      Br  0.93194165  0.72994062  0.73001365    -0.00100
Br645      Br  0.09058430  0.63297542  0.74553787    -0.00100
Br646      Br  0.14804253  0.67495647  0.77587325    -0.00100
C647        C  0.15223619  0.67703156  0.84943253    -0.01200
C648        C  0.42796400  0.65994641  0.85530610     0.08500
C649        C  0.37643610  0.66371315  0.83430004    -0.01300
C650        C  0.36213806  0.68404559  0.81952775    -0.01300
C651        C  0.07435228  0.70220314  0.82012428     0.08600
C652        C  0.13215511  0.69777399  0.83609594    -0.01500
Br653      Br  0.18290818  0.72028719  0.84192352    -0.00100
Br654      Br  0.22962934  0.67147952  0.87302758    -0.00100
Br655      Br  0.28543814  0.69122947  0.79608439    -0.00100
Br656      Br  0.32266271  0.64200634  0.82786224    -0.00100
N657        N  0.39224528  0.54829684  0.39970051    -0.26600
N658        N  0.35342517  0.54901387  0.41524669    -0.34500
C659        C  0.33669524  0.52914244  0.41733297     0.01700
C660        C  0.36595775  0.51491169  0.40223346     0.07700
C661        C  0.40099324  0.52759009  0.39116124    -0.05400
H662        H  0.30900837  0.52504166  0.43085989     0.08400
H663        H  0.43281264  0.52192673  0.37930072     0.09600
Cu664      Cu  0.87730600  0.57298987  0.47337153     0.44200
Cu665      Cu  0.83149132  0.57878869  0.39881406     0.42000
Cu666      Cu  0.77627952  0.61871733  0.44565559     0.43900
N667        N  0.83490128  0.59287590  0.49794536    -0.34000
N668        N  0.79533461  0.60957918  0.48785914    -0.28300
C669        C  0.76899960  0.61688290  0.50827224    -0.04400
C670        C  0.79287881  0.60381619  0.53212159     0.07800
C671        C  0.83449486  0.58885249  0.52475364     0.01600
H672        H  0.73240076  0.62958266  0.50538043     0.09300
H673        H  0.85983891  0.57507415  0.53735810     0.08400
N674        N  0.77559506  0.62490832  0.40386684    -0.35500
N675        N  0.79626769  0.61089163  0.38711503    -0.27700
C676        C  0.79407671  0.62131018  0.36258946    -0.02900
C677        C  0.77095193  0.64279692  0.36412067     0.05700
C678        C  0.75959992  0.64449527  0.39040744     0.03800
H679        H  0.80996420  0.61399290  0.34537730     0.08900
H680        H  0.74309123  0.65916512  0.39949834     0.07700
N681        N  0.27626553  0.55042949  0.16634628    -0.26600
N682        N  0.27687576  0.54764069  0.13979633    -0.34500
C683        C  0.26732011  0.52719886  0.13308769     0.01700
C684        C  0.26111078  0.51602092  0.15645975     0.07700
C685        C  0.26715630  0.53122678  0.17744481    -0.05400
H686        H  0.26851986  0.52061911  0.11286557     0.08400
H687        H  0.26599580  0.52845458  0.19906520     0.09600
Cu688      Cu  0.30122294  0.56920327  0.11374402     0.44200
Cu689      Cu  0.28971135  0.58087931  0.18387786     0.42000
Cu690      Cu  0.33664552  0.61960607  0.13440955     0.43900
N691        N  0.34151645  0.58765104  0.09054265    -0.34000
N692        N  0.35490911  0.60730372  0.09783631    -0.28300
C693        C  0.71785538  0.62097467  0.06617189    -0.04400
C694        C  0.73468235  0.60424392  0.04981957     0.07800
C695        C  0.71737512  0.58561096  0.05965808     0.01600
H696        H  0.72616455  0.63787549  0.06541221     0.09300
H697        H  0.35891944  0.56619432  0.05838149     0.08400
N698        N  0.31758879  0.62703424  0.17270242    -0.35500
N699        N  0.30249749  0.61378639  0.19061010    -0.27700
C700        C  0.30028616  0.62469172  0.21415009    -0.02900
C701        C  0.31436747  0.64562588  0.21064766     0.05700
C702        C  0.32488949  0.64645070  0.18425745     0.03800
H703        H  0.29222495  0.61755321  0.23290545     0.08900
H704        H  0.34075074  0.65978422  0.17482011     0.07700
N705        N  0.37338160  0.73718303  0.29771512    -0.02800
C706        C  0.38344974  0.72450605  0.32181137    -0.00200
C707        C  0.68166673  0.73456340  0.33392214    -0.23100
C708        C  0.64973725  0.75365609  0.32279966    -0.23300
C709        C  0.33123149  0.75425624  0.30025162    -0.00300
H710        H  0.68116549  0.72679487  0.35370173     0.13400
H711        H  0.62081639  0.76334946  0.33278362     0.13500
N712        N  0.41071795  0.73523290  0.27862191    -0.02800
C713        C  0.41659476  0.71766970  0.26200840    -0.00200
C714        C  0.46664244  0.71767493  0.25213460    -0.23100
C715        C  0.49471048  0.73451562  0.26421223    -0.23300
C716        C  0.46074886  0.74532805  0.28031025    -0.00300
H717        H  0.48375228  0.70540051  0.23949070     0.13400
H718        H  0.53863804  0.73689199  0.26389586     0.13500
N719        N  0.32840097  0.94697295  0.17826489    -0.26600
N720        N  0.35343087  0.95655556  0.16070043    -0.34500
C721        C  0.33762505  0.97827053  0.16002272     0.01700
C722        C  0.64370326  0.98378298  0.17963198     0.07700
C723        C  0.63376912  0.96347461  0.18850472    -0.05400
H724        H  0.34793554  0.98981160  0.14565104     0.08400
H725        H  0.60253154  0.96012863  0.20055600     0.09600
Cu726      Cu  0.39871512  0.93947329  0.13456958     0.44200
Cu727      Cu  0.33553878  0.91301948  0.18307454     0.42000
Cu728      Cu  0.42218737  0.88117449  0.13916537     0.43900
N729        N  0.42241224  0.92072259  0.10326462    -0.34000
N730        N  0.42873746  0.89908991  0.10371562    -0.28300
C731        C  0.43276676  0.89239655  0.07796415    -0.04400
C732        C  0.42872413  0.91083518  0.06069657     0.07800
C733        C  0.42271202  0.92836077  0.07768441     0.01600
H734        H  0.43446546  0.87553249  0.07180273     0.09300
H735        H  0.41443498  0.94553725  0.07140633     0.08400
N736        N  0.39982139  0.86880581  0.17476960    -0.35500
N737        N  0.36301336  0.87953016  0.18802217    -0.27700
C738        C  0.35103920  0.86580434  0.20685451    -0.02900
C739        C  0.38334630  0.84553738  0.20645757     0.05700
C740        C  0.41443250  0.84832668  0.18601100     0.03800
H741        H  0.32017000  0.87029406  0.21963939     0.08900
H742        H  0.44503729  0.83628509  0.17937806     0.07700
N743        N  0.57968912  0.96486817  0.40061328    -0.26600
N744        N  0.60758501  0.97249342  0.42425968    -0.34500
C745        C  0.58340529  0.99291455  0.42714954     0.01700
C746        C  0.53878440  0.99860962  0.40399517     0.07700
C747        C  0.53738037  0.98046259  0.38752646    -0.05400
H748        H  0.59568917  0.00255963  0.44536986     0.08400
H749        H  0.50588475  0.97826533  0.36841637     0.09600
Cu750      Cu  0.67147871  0.95383721  0.45347132     0.44200
Cu751      Cu  0.59727960  0.93260066  0.39002890     0.42000
Cu752      Cu  0.70760778  0.89707523  0.44194721     0.43900
N753        N  0.39628384  0.92526278  0.48946792    -0.34000
N754        N  0.40589763  0.90396844  0.48611078    -0.28300
C755        C  0.41968635  0.89629229  0.01045639    -0.04400
C756        C  0.42067491  0.91263691  0.02992749     0.07800
C757        C  0.40217156  0.93187233  0.01410262     0.01600
H758        H  0.42839553  0.87881051  0.01484186     0.09300
H759        H  0.39313566  0.94805270  0.02171604     0.08400
N760        N  0.66781116  0.88782264  0.40191621    -0.35500
N761        N  0.62423846  0.89987099  0.38478234    -0.27700
C762        C  0.59896389  0.88725550  0.36447062    -0.02900
C763        C  0.62851663  0.86625440  0.36842389     0.05700
C764        C  0.67290771  0.86752705  0.39203760     0.03800
H765        H  0.55941445  0.89268358  0.34908801     0.08900
H766        H  0.70391464  0.85416565  0.40262011     0.07700
N767        N  0.61740679  0.77186739  0.27601789    -0.02800
C768        C  0.62484379  0.77964881  0.25099042    -0.00200
C769        C  0.57058756  0.78617024  0.23366543    -0.23100
C770        C  0.52916149  0.78332108  0.24834525    -0.23300
C771        C  0.55825327  0.77583312  0.27466814    -0.00300
H772        H  0.56215124  0.79469833  0.21354068     0.13400
H773        H  0.48336620  0.78865053  0.24172908     0.13500
N774        N  0.52812577  0.77530238  0.29763191    -0.02800
C775        C  0.52899033  0.78999187  0.31877068    -0.00200
C776        C  0.48889450  0.78586316  0.33396031    -0.23100
C777        C  0.46170654  0.76882859  0.32241190    -0.23300
C778        C  0.48324089  0.76306312  0.29934443    -0.00300
H779        H  0.48038609  0.79441011  0.35206438     0.13400
H780        H  0.43009796  0.76170806  0.33093655     0.13500
N781        N  0.46747441  0.05402435  0.39447262    -0.26600
N782        N  0.45248603  0.04734946  0.41719364    -0.34500
C783        C  0.46936424  0.02581644  0.42168967     0.01700
C784        C  0.49631757  0.01831955  0.40086710     0.07700
C785        C  0.49436410  0.03664720  0.38386653    -0.05400
H786        H  0.46959412  0.01695336  0.44083985     0.08400
H787        H  0.51782272  0.03782945  0.36749380     0.09600
Cu788      Cu  0.43340643  0.06791741  0.44747643     0.44200
Cu789      Cu  0.46706817  0.08727422  0.38516702     0.42000
Cu790      Cu  0.50698767  0.11554996  0.45045765     0.43900
N791        N  0.45178518  0.08603623  0.48264385    -0.34000
N792        N  0.48160535  0.10302661  0.48432069    -0.28300
C793        C  0.49298436  0.10949721  0.51084142    -0.04400
C794        C  0.47659460  0.09438890  0.02813378     0.07800
C795        C  0.44377918  0.08104031  0.50800757     0.01600
H796        H  0.51868939  0.12257035  0.51831277     0.09300
H797        H  0.42371261  0.06699313  0.51282917     0.08400
N798        N  0.50308229  0.12917917  0.41150427    -0.35500
N799        N  0.48167834  0.12016394  0.38769706    -0.27700
C800        C  0.47564696  0.13512011  0.36675798    -0.02900
C801        C  0.49595374  0.15428424  0.37784334     0.05700
C802        C  0.51344936  0.14961446  0.40629819     0.03800
H803        H  0.45766022  0.13215524  0.34509061     0.08900
H804        H  0.53215562  0.16032192  0.42229243     0.07700
N805        N  0.58206514  0.03935812  0.18798597    -0.26600
N806        N  0.55077559  0.03488187  0.16332110    -0.34500
C807        C  0.56514583  0.01390704  0.15786551     0.01700
C808        C  0.60712055  0.00455485  0.18019412     0.07700
C809        C  0.61737942  0.02113184  0.19891674    -0.05400
H810        H  0.55030259  0.00661858  0.13796967     0.08400
H811        H  0.65136116  0.02052095  0.21780001     0.09600
Cu812      Cu  0.50421701  0.05819164  0.13414734     0.44200
Cu813      Cu  0.58311668  0.07126478  0.20184562     0.42000
Cu814      Cu  0.56709923  0.10780920  0.14090704     0.43900
N815        N  0.49467965  0.08020892  0.10130117    -0.34000
N816        N  0.52163604  0.09794069  0.10323233    -0.28300
C817        C  0.51633904  0.10668188  0.07749904    -0.04400
C818        C  0.48484499  0.09359667  0.05856219     0.07800
C819        C  0.47153783  0.07706455  0.07436630     0.01600
H820        H  0.53669740  0.12071731  0.07289477     0.09300
H821        H  0.45088672  0.06280602  0.06680073     0.08400
N822        N  0.58552176  0.11740580  0.18162555    -0.35500
N823        N  0.58580146  0.10498038  0.20373700    -0.27700
C824        C  0.59032900  0.11765065  0.22617725    -0.02900
C825        C  0.59415496  0.13895674  0.21772348     0.05700
C826        C  0.59145950  0.13797497  0.18940723     0.03800
H827        H  0.59078822  0.11174629  0.24702084     0.08900
H828        H  0.59310118  0.15134518  0.17526952     0.07700
N829        N  0.67438643  0.22954720  0.29016960    -0.02800
C830        C  0.66935505  0.21690898  0.26708376    -0.00200
C831        C  0.38568806  0.21741536  0.25353404    -0.23100
C832        C  0.41737617  0.23219698  0.26855344    -0.23300
C833        C  0.39259114  0.23790940  0.29083731    -0.00300
H834        H  0.39549451  0.20900642  0.23557931     0.13400
H835        H  0.45491402  0.23762202  0.26314100     0.13500
N836        N  0.58340894  0.23485597  0.31051782    -0.02800
C837        C  0.57384235  0.22749262  0.33541005    -0.00200
C838        C  0.62712784  0.22008742  0.35316120    -0.23100
C839        C  0.66926761  0.22013856  0.33836802    -0.23300
C840        C  0.64217207  0.22852694  0.31218507    -0.00300
H841        H  0.63361330  0.21172693  0.37330344     0.13400
H842        H  0.71461993  0.21387669  0.34549427     0.13500
N843        N  0.27679846  0.45666364  0.16798599    -0.26600
N844        N  0.25719299  0.45904482  0.14063717    -0.34500
C845        C  0.24313638  0.48031734  0.13351905     0.01700
C846        C  0.25540932  0.49235847  0.15723028     0.07700
C847        C  0.27619334  0.47680847  0.17896416    -0.05400
H848        H  0.23104032  0.48660514  0.11213182     0.08400
H849        H  0.29475572  0.47995234  0.20053967     0.09600
Cu850      Cu  0.26842158  0.43554160  0.11205058     0.44200
Cu851      Cu  0.31144070  0.42572853  0.18654100     0.42000
Cu852      Cu  0.34658554  0.38504247  0.13390519     0.43900
N853        N  0.30368764  0.41571405  0.08489680    -0.34000
N854        N  0.33376608  0.39642991  0.09270297    -0.28300
C855        C  0.35563436  0.38834721  0.07120852    -0.04400
C856        C  0.33871362  0.40355718  0.04898281     0.07800
C857        C  0.30617152  0.42069348  0.05860372     0.01600
H858        H  0.38389732  0.37311577  0.07213396     0.09300
H859        H  0.28747386  0.43609422  0.04769521     0.08400
N860        N  0.35414962  0.37839715  0.17634218    -0.35500
N861        N  0.34230117  0.39242537  0.19524328    -0.27700
C862        C  0.35327815  0.38162921  0.22029409    -0.02900
C863        C  0.37270048  0.35990293  0.21685617     0.05700
C864        C  0.37273530  0.35856832  0.18883827     0.03800
H865        H  0.34756633  0.38903078  0.23953283     0.08900
H866        H  0.38586979  0.34413785  0.17827397     0.07700
N867        N  0.39363086  0.39641268  0.48639200    -0.26600
N868        N  0.35506611  0.41405233  0.48058514    -0.34500
C869        C  0.34585167  0.42096535  0.00302084     0.01700
C870        C  0.35579352  0.40338287  0.02182552     0.07700
C871        C  0.38893121  0.38717207  0.01065656    -0.05400
H872        H  0.32412759  0.43710783  0.00514687     0.08400
H873        H  0.40681862  0.37112688  0.01989596     0.09600
Cu874      Cu  0.34364954  0.43412896  0.44545220     0.44200
Cu875      Cu  0.44241539  0.38520326  0.45761811     0.42000
Cu876      Cu  0.44230572  0.42492823  0.40031074     0.43900
N877        N  0.35682890  0.45803261  0.41861674    -0.34000
N878        N  0.39531887  0.45533122  0.40284125    -0.28300
C879        C  0.40200828  0.47511805  0.39272422    -0.04400
C880        C  0.36620560  0.49091788  0.40290184     0.07800
C881        C  0.33800495  0.47939799  0.41901255     0.01600
H882        H  0.43363971  0.47791271  0.38066351     0.09300
H883        H  0.30988942  0.48614179  0.43219041     0.08400
N884        N  0.47678454  0.39204497  0.40213410    -0.35500
N885        N  0.47570180  0.37777668  0.42230114    -0.27700
C886        C  0.49087522  0.35748637  0.41423993    -0.02900
C887        C  0.50211716  0.35890079  0.38783762     0.05700
C888        C  0.49339591  0.38114218  0.38103145     0.03800
H889        H  0.48796463  0.34260895  0.42549044     0.08900
H890        H  0.49282461  0.38862516  0.36095268     0.07700
N891        N  0.46420155  0.26512091  0.31402428    -0.02800
C892        C  0.46373738  0.27903952  0.33566848    -0.00200
C893        C  0.42117496  0.27477074  0.34923703    -0.23100
C894        C  0.39155972  0.25936182  0.33467915    -0.23300
C895        C  0.41758940  0.25329973  0.31296635    -0.00300
H896        H  0.40770746  0.28415726  0.36572240     0.13400
H897        H  0.68024765  0.26092047  0.33594572     0.13500
N898        N  0.49856971  0.26591400  0.29377681    -0.02800
C899        C  0.48600649  0.28028095  0.27110528    -0.00200
C900        C  0.52452068  0.27550651  0.25435928    -0.23100
C901        C  0.56279246  0.25821884  0.26675454    -0.23300
C902        C  0.54683116  0.25177490  0.29078305    -0.00300
H903        H  0.52719143  0.28477762  0.23595397     0.13400
H904        H  0.59983777  0.25225585  0.25887065     0.13500
C905        C  0.44340999  0.31964878  0.33307527    -0.01200
C906        C  0.48530741  0.30089968  0.33978849     0.08500
C907        C  0.53781467  0.30296409  0.35924995    -0.01300
C908        C  0.54525076  0.32249253  0.37395260    -0.01300
C909        C  0.50133546  0.34053495  0.36833947     0.08600
C910        C  0.45196069  0.33945499  0.34652033    -0.01500
Br911      Br  0.39110683  0.36396356  0.33734053    -0.00100
Br912      Br  0.36886291  0.31744315  0.30900670    -0.00100
Br913      Br  0.61414839  0.32417244  0.40298628    -0.00100
Br914      Br  0.59780006  0.27859448  0.36722259    -0.00100
C915        C  0.47304521  0.32108751  0.27115348    -0.01200
C916        C  0.44719750  0.30141707  0.26581115     0.08500
C917        C  0.39160733  0.30245765  0.24746777    -0.01300
C918        C  0.36415437  0.32236436  0.23371930    -0.01300
C919        C  0.39203611  0.34146203  0.23775963     0.08600
C920        C  0.44456541  0.34111650  0.25800189    -0.01500
Br921      Br  0.48035856  0.36767845  0.26585031    -0.00100
Br922      Br  0.55142406  0.32023247  0.29337919    -0.00100
Br923      Br  0.28869022  0.32344149  0.20829361    -0.00100
Br924      Br  0.35418812  0.27662272  0.23865926    -0.00100
C925        C  0.64569989  0.15792297  0.25971161    -0.01200
C926        C  0.60280501  0.15874504  0.23455378     0.08500
C927        C  0.57312308  0.17927181  0.22353034    -0.01300
C928        C  0.59308642  0.19871205  0.23466063    -0.01300
C929        C  0.63594850  0.19799436  0.25991207     0.08600
C930        C  0.65902577  0.17742097  0.27312032    -0.01500
Br931      Br  0.38195716  0.17179398  0.30641439    -0.00100
Br932      Br  0.69300699  0.13081438  0.27419334    -0.00100
Br933      Br  0.56402925  0.22586660  0.21375252    -0.00100
Br934      Br  0.50417574  0.18101719  0.19352495    -0.00100
C935        C  0.51817672  0.17471161  0.33732771    -0.01200
C936        C  0.50088031  0.17506741  0.36301481     0.08500
C937        C  0.49116124  0.19560019  0.37507247    -0.01300
C938        C  0.50908088  0.21439325  0.36442712    -0.01300
C939        C  0.52681835  0.21400207  0.33872279     0.08600
C940        C  0.52292921  0.19447602  0.32389709    -0.01500
Br941      Br  0.52647264  0.19396773  0.28562772    -0.00100
Br942      Br  0.54290243  0.14756426  0.32140202    -0.00100
Br943      Br  0.51935769  0.23903238  0.38807932    -0.00100
Br944      Br  0.45308433  0.19858003  0.40598125    -0.00100
C945        C  0.60929475  0.82688721  0.37044654    -0.01200
C946        C  0.60916710  0.84601235  0.35434861     0.08500
C947        C  0.58788631  0.84581756  0.32507902    -0.01300
C948        C  0.56406281  0.82723848  0.31250192    -0.01300
C949        C  0.56762198  0.80755057  0.32840065     0.08600
C950        C  0.59389578  0.80746940  0.35743005    -0.01500
Br951      Br  0.60506833  0.78110375  0.38091686    -0.00100
Br952      Br  0.61895446  0.82781086  0.41059989    -0.00100
Br953      Br  0.52670436  0.82971638  0.27362262    -0.00100
Br954      Br  0.59119014  0.87093788  0.30178381    -0.00100
C955        C  0.70723682  0.82729602  0.24901922    -0.01200
C956        C  0.38069529  0.82505565  0.22272412     0.08500
C957        C  0.37903005  0.80458916  0.20976180    -0.01300
C958        C  0.37112401  0.78585061  0.22454178    -0.01300
C959        C  0.67498467  0.79065336  0.24573706     0.08600
C960        C  0.69126034  0.80890698  0.26162523    -0.01500
Br961      Br  0.68753900  0.80990020  0.30016050    -0.00100
Br962      Br  0.72153297  0.85300275  0.27081482    -0.00100
Br963      Br  0.37703198  0.75794906  0.20759837    -0.00100
Br964      Br  0.37902417  0.80185203  0.17059582    -0.00100
C965        C  0.32460180  0.70133951  0.23967321    -0.01200
C966        C  0.38149629  0.69868440  0.25684117     0.08500
C967        C  0.41015825  0.67700746  0.26304075    -0.01300
C968        C  0.38418714  0.65893216  0.25072890    -0.01300
C969        C  0.33008182  0.66223197  0.23157631     0.08600
C970        C  0.29891173  0.68322936  0.22734049    -0.01500
Br971      Br  0.22251073  0.68714965  0.20248003    -0.00100
Br972      Br  0.28363613  0.72957383  0.22939433    -0.00100
Br973      Br  0.42606589  0.62982060  0.25738202    -0.00100
Br974      Br  0.48784967  0.67154275  0.28607278    -0.00100
C975        C  0.48601758  0.67588902  0.35788421    -0.01200
C976        C  0.76403183  0.66110638  0.34368168     0.08500
C977        C  0.71104962  0.66582590  0.32395153    -0.01300
C978        C  0.69552248  0.68688464  0.31129482    -0.01300
C979        C  0.41068354  0.70132987  0.32721816     0.08600
C980        C  0.46809413  0.69641409  0.34347245    -0.01500
Br981      Br  0.52163750  0.71798264  0.34713336    -0.00100
Br982      Br  0.56457647  0.66914451  0.37982436    -0.00100
Br983      Br  0.61679864  0.69498851  0.29062039    -0.00100
Br984      Br  0.65730719  0.64414701  0.31665875    -0.00100
N985        N  0.49140473  0.54401062  0.92346778    -0.26600
N986        N  0.49841612  0.53944354  0.95042208    -0.34500
C987        C  0.49263723  0.51829392  0.95417627     0.01700
C988        C  0.48198574  0.50894163  0.92844745     0.07700
C989        C  0.48182576  0.52560472  0.90933234    -0.05400
H990        H  0.49052582  0.51083587  0.97389170     0.08400
H991        H  0.46903883  0.52501304  0.88682828     0.09600
Cu992      Cu  0.86401393  0.57116102  0.97553068     0.44200
Cu993      Cu  0.84033891  0.57921834  0.90070539     0.42000
Cu994      Cu  0.78266293  0.62027362  0.94548920     0.43900
N995        N  0.81910186  0.59239889  0.99775111    -0.34000
N996        N  0.78775838  0.61080248  0.98675066    -0.28300
C997        C  0.75619381  0.61910892  0.00476858    -0.04400
C998        C  0.76784057  0.60493720  0.02794117     0.07800
C999        C  0.80769424  0.58820830  0.02268059     0.01600
H1000       H  0.72321044  0.63314574  0.00017595     0.09300
H1001       H  0.82371236  0.57321912  0.03505938     0.08400
N1002       N  0.78573935  0.62585666  0.90405451    -0.35500
N1003       N  0.80706711  0.61152391  0.88784726    -0.27700
C1004       C  0.80466376  0.62153486  0.86297154    -0.02900
C1005       C  0.78066148  0.64306851  0.86375311     0.05700
C1006       C  0.76917636  0.64516480  0.88997322     0.03800
H1007       H  0.82042150  0.61387754  0.84591948     0.08900
H1008       H  0.75153213  0.65990819  0.89850370     0.07700
N1009       N  0.26593230  0.54997682  0.66014522    -0.26600
N1010       N  0.24935801  0.54811135  0.63283077    -0.34500
C1011       C  0.24145808  0.52724751  0.62719402     0.01700
C1012       C  0.25425213  0.51500294  0.65201205     0.07700
C1013       C  0.26955925  0.52998467  0.67262301    -0.05400
H1014       H  0.23092376  0.52120993  0.60628488     0.08400
H1015       H  0.28439334  0.52646574  0.69483942     0.09600
Cu1016     Cu  0.25055562  0.57219414  0.60336901     0.44200
Cu1017     Cu  0.28651906  0.57998293  0.67738241     0.42000
Cu1018     Cu  0.30675399  0.62105644  0.62468617     0.43900
N1019       N  0.27854327  0.59251760  0.57662770    -0.34000
N1020       N  0.30181235  0.61058247  0.58444546    -0.28300
C1021       C  0.73960229  0.61881596  0.56976481    -0.04400
C1022       C  0.77174251  0.60272628  0.55801778     0.07800
C1023       C  0.77740543  0.58422493  0.57498041     0.01600
H1024       H  0.72606034  0.63560068  0.56222135     0.09300
H1025       H  0.27151802  0.57369462  0.53985543     0.08400
N1026       N  0.30965147  0.62665779  0.66643979    -0.35500
N1027       N  0.30328395  0.61239493  0.68558863    -0.27700
C1028       C  0.31036056  0.62222404  0.71040716    -0.02900
C1029       C  0.32148261  0.64355736  0.70647003     0.05700
C1030       C  0.32071597  0.64566909  0.67844306     0.03800
H1031       H  0.30837514  0.61435854  0.72988334     0.08900
H1032       H  0.32907198  0.65993266  0.66761504     0.07700
N1033       N  0.36755806  0.73621402  0.79553932    -0.02800
C1034       C  0.37561443  0.72334703  0.81925221    -0.00200
C1035       C  0.68091251  0.73348230  0.83349321    -0.23100
C1036       C  0.64676456  0.75224785  0.82269735    -0.23300
C1037       C  0.32874903  0.75409498  0.79901111    -0.00300
H1038       H  0.68091570  0.72515989  0.85299326     0.13400
H1039       H  0.61646293  0.76094754  0.83285101     0.13500
N1040       N  0.40724832  0.73430875  0.77749039    -0.02800
C1041       C  0.41497419  0.71684898  0.76082019    -0.00200
C1042       C  0.46638100  0.71700495  0.75218972    -0.23100
C1043       C  0.49367478  0.73359513  0.76526475    -0.23300
C1044       C  0.45771898  0.74436933  0.78042751    -0.00300
H1045       H  0.48510419  0.70476947  0.74000721     0.13400
H1046       H  0.53845736  0.73570818  0.76645661     0.13500
N1047       N  0.34715347  0.94416491  0.67838103    -0.26600
N1048       N  0.37855616  0.95322715  0.66334965    -0.34500
C1049       C  0.36740509  0.97510841  0.66388880     0.01700
C1050       C  0.63224118  0.98325977  0.67883202     0.07700
C1051       C  0.62350218  0.96299058  0.68851160    -0.05400
H1052       H  0.38274059  0.98651630  0.65112425     0.08400
H1053       H  0.59353653  0.95975303  0.70131546     0.09600
Cu1054     Cu  0.42458885  0.93563032  0.63787292     0.44200
Cu1055     Cu  0.34445690  0.91067891  0.68040550     0.42000
Cu1056     Cu  0.43298757  0.87747099  0.63929349     0.43900
N1057       N  0.44464386  0.91683852  0.60579235    -0.34000
N1058       N  0.44531094  0.89534268  0.60518476    -0.28300
C1059       C  0.44591780  0.88897891  0.57896327    -0.04400
C1060       C  0.44536168  0.90748466  0.56241716     0.07800
C1061       C  0.44522249  0.92470018  0.58034583     0.01600
H1062       H  0.44166167  0.87250319  0.57192943     0.09300
H1063       H  0.44003774  0.94197334  0.57473581     0.08400
N1064       N  0.40400345  0.86567500  0.67312206    -0.35500
N1065       N  0.36639983  0.87710090  0.68529306    -0.27700
C1066       C  0.35068109  0.86395229  0.70355102    -0.02900
C1067       C  0.38129036  0.84332268  0.70382535     0.05700
C1068       C  0.41518001  0.84520056  0.68440310     0.03800
H1069       H  0.31893466  0.86914332  0.71563666     0.08900
H1070       H  0.44533146  0.83253182  0.67854227     0.07700
N1071       N  0.58109227  0.96231543  0.90172426    -0.26600
N1072       N  0.60976338  0.97022002  0.92499933    -0.34500
C1073       C  0.58619366  0.99079123  0.92749441     0.01700
C1074       C  0.54105061  0.99630993  0.90450345     0.07700
C1075       C  0.53871733  0.97786562  0.88852575    -0.05400
H1076       H  0.59903784  0.00064253  0.94545833     0.08400
H1077       H  0.50649984  0.97544675  0.86975635     0.09600
Cu1078     Cu  0.67370375  0.95182452  0.95453051     0.44200
Cu1079     Cu  0.59827236  0.92980440  0.89196264     0.42000
Cu1080     Cu  0.71036217  0.89492889  0.94424244     0.43900
N1081       N  0.39013725  0.92713364  0.98701618    -0.34000
N1082       N  0.40099987  0.90576938  0.98453317    -0.28300
C1083       C  0.42794833  0.89397568  0.51153266    -0.04400
C1084       C  0.43275177  0.90992661  0.53157119     0.07800
C1085       C  0.41272659  0.92946957  0.51660868     0.01600
H1086       H  0.43675129  0.87642565  0.51529429     0.09300
H1087       H  0.40569208  0.94549102  0.52501713     0.08400
N1088       N  0.66957992  0.88510610  0.90459335    -0.35500
N1089       N  0.62574413  0.89699655  0.88741114    -0.27700
C1090       C  0.60054768  0.88422458  0.86730108    -0.02900
C1091       C  0.63034087  0.86327050  0.87136913     0.05700
C1092       C  0.67482319  0.86472405  0.89492026     0.03800
H1093       H  0.56096622  0.88954827  0.85188793     0.08900
H1094       H  0.70634626  0.85150164  0.90547637     0.07700
N1095       N  0.61302535  0.77121892  0.77619286    -0.02800
C1096       C  0.61858472  0.77907576  0.75077981    -0.00200
C1097       C  0.56357312  0.78551906  0.73411242    -0.23100
C1098       C  0.52343677  0.78262381  0.74945765    -0.23300
C1099       C  0.55403537  0.77516360  0.77556071    -0.00300
H1100       H  0.55378232  0.79403596  0.71393518     0.13400
H1101       H  0.47736984  0.78776795  0.74336477     0.13500
N1102       N  0.52483509  0.77402768  0.79878360    -0.02800
C1103       C  0.52636523  0.78819326  0.82048584    -0.00200
C1104       C  0.48624033  0.78379474  0.83556098    -0.23100
C1105       C  0.45842411  0.76707315  0.82332152    -0.23300
C1106       C  0.47960187  0.76185331  0.80000827    -0.00300
H1107       H  0.47829701  0.79187774  0.85406302     0.13400
H1108       H  0.42718250  0.75959176  0.83165446     0.13500
N1109       N  0.47003955  0.05177969  0.89563977    -0.26600
N1110       N  0.45665380  0.04509182  0.91876233    -0.34500
C1111       C  0.47316218  0.02352392  0.92298364     0.01700
C1112       C  0.49842992  0.01598381  0.90162619     0.07700
C1113       C  0.49571853  0.03435987  0.88454941    -0.05400
H1114       H  0.47465221  0.01465464  0.94229463     0.08400
H1115       H  0.51798625  0.03552361  0.86772430     0.09600
Cu1116     Cu  0.44068433  0.06558321  0.94968540     0.44200
Cu1117     Cu  0.46884437  0.08511641  0.88622295     0.42000
Cu1118     Cu  0.51149452  0.11371830  0.95127179     0.43900
N1119       N  0.45938377  0.08401293  0.98455679    -0.34000
N1120       N  0.48814641  0.10125982  0.98572145    -0.28300
C1121       C  0.49917178  0.10817348  0.01204946    -0.04400
C1122       C  0.46963001  0.09567406  0.52652944     0.07800
C1123       C  0.45168079  0.07929625  0.01005421     0.01600
H1124       H  0.52377549  0.12162737  0.01909645     0.09300
H1125       H  0.43217439  0.06521446  0.01524755     0.08400
N1126       N  0.50506861  0.12723758  0.91201046    -0.35500
N1127       N  0.48266625  0.11815242  0.88839901    -0.27700
C1128       C  0.47554206  0.13309160  0.86732778    -0.02900
C1129       C  0.49627409  0.15229542  0.87810100     0.05700
C1130       C  0.51502551  0.14766968  0.90652046     0.03800
H1131       H  0.45664884  0.13006362  0.84578267     0.08900
H1132       H  0.53453445  0.15838647  0.92230248     0.07700
N1133       N  0.57242390  0.03917906  0.68663590    -0.26600
N1134       N  0.54181616  0.03478870  0.66178447    -0.34500
C1135       C  0.55518359  0.01368048  0.65661938     0.01700
C1136       C  0.59577008  0.00410309  0.67932505     0.07700
C1137       C  0.60632161  0.02074446  0.69796607    -0.05400
H1138       H  0.54089873  0.00641315  0.63665614     0.08400
H1139       H  0.63981009  0.02000647  0.71704771     0.09600
Cu1140     Cu  0.49772353  0.05821383  0.63214476     0.44200
Cu1141     Cu  0.57418041  0.07117778  0.70027767     0.42000
Cu1142     Cu  0.55845241  0.10831306  0.63974999     0.43900
N1143       N  0.48861815  0.08039398  0.59947660    -0.34000
N1144       N  0.51475399  0.09833129  0.60176741    -0.28300
C1145       C  0.50929473  0.10738324  0.57618667    -0.04400
C1146       C  0.47842682  0.09432651  0.55697035     0.07800
C1147       C  0.46577926  0.07744364  0.57244810     0.01600
H1148       H  0.52875897  0.12173172  0.57188032     0.09300
H1149       H  0.44547769  0.06318002  0.56459739     0.08400
N1150       N  0.57585107  0.11761245  0.68061936    -0.35500
N1151       N  0.57633827  0.10494858  0.70255182    -0.27700
C1152       C  0.58154817  0.11735515  0.72525122    -0.02900
C1153       C  0.58582138  0.13872472  0.71718753     0.05700
C1154       C  0.58230320  0.13806776  0.68877645     0.03800
H1155       H  0.58268985  0.11117534  0.74605081     0.08900
H1156       H  0.58446292  0.15153938  0.67489301     0.07700
N1157       N  0.67747559  0.22745022  0.79057248    -0.02800
C1158       C  0.67116059  0.21545036  0.76690966    -0.00200
C1159       C  0.39005424  0.21585077  0.75452825    -0.23100
C1160       C  0.42066378  0.23099754  0.76935598    -0.23300
C1161       C  0.39527042  0.23665379  0.79147153    -0.00300
H1162       H  0.40065898  0.20732104  0.73680974     0.13400
H1163       H  0.45814064  0.23659129  0.76406598     0.13500
N1164       N  0.58710914  0.23263777  0.81145220    -0.02800
C1165       C  0.57759978  0.22424689  0.83589478    -0.00200
C1166       C  0.63049297  0.21531084  0.85278352    -0.23100
C1167       C  0.67224868  0.21560523  0.83785281    -0.23300
C1168       C  0.64557138  0.22584146  0.81259875    -0.00300
H1169       H  0.63648885  0.20600062  0.87223741     0.13400
H1170       H  0.71724067  0.20858977  0.84440057     0.13500
N1171       N  0.28353320  0.45560346  0.66750311    -0.26600
N1172       N  0.26049193  0.45663070  0.64036874    -0.34500
C1173       C  0.24398321  0.47756329  0.63169106     0.01700
C1174       C  0.25739699  0.49080263  0.65418719     0.07700
C1175       C  0.28221379  0.47631398  0.67678442    -0.05400
H1176       H  0.22765657  0.48278594  0.61001317     0.08400
H1177       H  0.30113822  0.48057889  0.69788902     0.09600
Cu1178     Cu  0.26684279  0.43121654  0.61385827     0.44200
Cu1179     Cu  0.32107782  0.42532827  0.68794390     0.42000
Cu1180     Cu  0.36228936  0.38415426  0.63758370     0.43900
N1181       N  0.30406430  0.41180781  0.58710741    -0.34000
N1182       N  0.34272360  0.39454930  0.59563985    -0.28300
C1183       C  0.36574006  0.38759432  0.57397018    -0.04400
C1184       C  0.34012754  0.40138662  0.55087325     0.07800
C1185       C  0.30125081  0.41643186  0.56011261     0.01600
H1186       H  0.40008638  0.37417452  0.57523074     0.09300
H1187       H  0.27508217  0.43052215  0.54854015     0.08400
N1188       N  0.36785518  0.37791753  0.68003518    -0.35500
N1189       N  0.35363327  0.39213199  0.69826626    -0.27700
C1190       C  0.36226031  0.38152201  0.72338158    -0.02900
C1191       C  0.38241375  0.35970615  0.72064581     0.05700
C1192       C  0.38547185  0.35817854  0.69298307     0.03800
H1193       H  0.35400011  0.38905311  0.74214028     0.08900
H1194       H  0.39950713  0.34361255  0.68291428     0.07700
N1195       N  0.39784381  0.39514788  0.98642867    -0.26600
N1196       N  0.37182312  0.41544949  0.98206237    -0.34500
C1197       C  0.33009723  0.41798251  0.50225733     0.01700
C1198       C  0.35385928  0.40210952  0.52300281     0.07700
C1199       C  0.39418739  0.38860806  0.51227033    -0.05400
H1200       H  0.29833078  0.43191146  0.50314242     0.08400
H1201       H  0.42238965  0.37446009  0.52263100     0.09600
Cu1202     Cu  0.38242463  0.43660127  0.95141230     0.44200
Cu1203     Cu  0.44703269  0.38112595  0.95906525     0.42000
Cu1204     Cu  0.48238138  0.42020073  0.90906663     0.43900
N1205       N  0.41962192  0.45848279  0.93103490    -0.34000
N1206       N  0.45714144  0.45269372  0.91541789    -0.28300
C1207       C  0.48165859  0.47040063  0.90973133    -0.04400
C1208       C  0.45884263  0.48798071  0.92283957     0.07800
C1209       C  0.41981805  0.47984167  0.93613053     0.01600
H1210       H  0.51764652  0.46997810  0.89946911     0.09300
H1211       H  0.39713529  0.48834727  0.95048259     0.08400
N1212       N  0.50088498  0.38652740  0.90870689    -0.35500
N1213       N  0.48816132  0.37248854  0.92637708    -0.27700
C1214       C  0.49831478  0.35212016  0.91738828    -0.02900
C1215       C  0.51839645  0.35336237  0.89308383     0.05700
C1216       C  0.51951584  0.37545041  0.88826385     0.03800
H1217       H  0.48616621  0.33765269  0.92621020     0.08900
H1218       H  0.52712389  0.38305274  0.86968303     0.07700
N1219       N  0.46821369  0.26291077  0.81587606    -0.02800
C1220       C  0.46782164  0.27654876  0.83771823    -0.00200
C1221       C  0.42429445  0.27259511  0.85078028    -0.23100
C1222       C  0.39346797  0.25792001  0.83537097    -0.23300
C1223       C  0.42022262  0.25173823  0.81394399    -0.00300
H1224       H  0.41095997  0.28190210  0.86734503     0.13400
H1225       H  0.69450680  0.25410000  0.84192400     0.13500
N1226       N  0.50255212  0.26413842  0.79572943    -0.02800
C1227       C  0.49053406  0.27926315  0.77383428    -0.00200
C1228       C  0.52905587  0.27488425  0.75699660    -0.23100
C1229       C  0.56677780  0.25717168  0.76862749    -0.23300
C1230       C  0.55063850  0.25005711  0.79231111    -0.00300
H1231       H  0.53209686  0.28464460  0.73905586     0.13400
H1232       H  0.60358645  0.25133403  0.76049171     0.13500
C1233       C  0.45104722  0.31719438  0.83725943    -0.01200
C1234       C  0.49142093  0.29791081  0.84245482     0.08500
C1235       C  0.54632039  0.29893985  0.86045257    -0.01300
C1236       C  0.55766301  0.31793490  0.87565389    -0.01300
C1237       C  0.51488449  0.33622697  0.87212844     0.08600
C1238       C  0.46354268  0.33642229  0.85126375    -0.01500
Br1239     Br  0.40677314  0.36226029  0.84395641    -0.00100
Br1240     Br  0.37419807  0.31674707  0.81436010    -0.00100
Br1241     Br  0.63048646  0.31870630  0.90234124    -0.00100
Br1242     Br  0.60455246  0.27407997  0.86564937    -0.00100
C1243       C  0.47863550  0.32015103  0.77524724    -0.01200
C1244       C  0.45211020  0.30064767  0.76943287     0.08500
C1245       C  0.39635440  0.30226366  0.75112570    -0.01300
C1246       C  0.37028779  0.32239252  0.73738194    -0.01300
C1247       C  0.39921170  0.34124962  0.74177366     0.08600
C1248       C  0.45112735  0.34043992  0.76246107    -0.01500
Br1249     Br  0.48749960  0.36677072  0.77135529    -0.00100
Br1250     Br  0.55695176  0.31878924  0.79734163    -0.00100
Br1251     Br  0.29562974  0.32407827  0.71125728    -0.00100
Br1252     Br  0.35717951  0.27683163  0.74217667    -0.00100
C1253       C  0.64238058  0.15664406  0.75890514    -0.01200
C1254       C  0.59747135  0.15815177  0.73442117     0.08500
C1255       C  0.56937047  0.17903087  0.72397515    -0.01300
C1256       C  0.59220279  0.19807039  0.73492393    -0.01300
C1257       C  0.63714449  0.19669255  0.75944920     0.08600
C1258       C  0.65995256  0.17583477  0.77193492    -0.01500
Br1259     Br  0.38047287  0.17134837  0.81017757    -0.00100
Br1260     Br  0.68590912  0.12878205  0.77310792    -0.00100
Br1261     Br  0.56391400  0.22557218  0.71473850    -0.00100
Br1262     Br  0.49813563  0.18176242  0.69526394    -0.00100
C1263       C  0.51749765  0.17261155  0.83716015    -0.01200
C1264       C  0.50113694  0.17302374  0.86308740     0.08500
C1265       C  0.49265805  0.19357074  0.87530713    -0.01300
C1266       C  0.51139230  0.21219960  0.86469486    -0.01300
C1267       C  0.52858534  0.21172579  0.83886051     0.08600
C1268       C  0.52309277  0.19233667  0.82385387    -0.01500
Br1269     Br  0.52789160  0.19187266  0.78579162    -0.00100
Br1270     Br  0.53899104  0.14539608  0.82048529    -0.00100
Br1271     Br  0.52450664  0.23646755  0.88875350    -0.00100
Br1272     Br  0.45549840  0.19676375  0.90650716    -0.00100
C1273       C  0.61114744  0.82374310  0.87283935    -0.01200
C1274       C  0.61109683  0.84307083  0.85708562     0.08500
C1275       C  0.58878498  0.84332028  0.82785668    -0.01300
C1276       C  0.56293629  0.82520968  0.81508044    -0.01300
C1277       C  0.56581179  0.80540394  0.83055595     0.08600
C1278       C  0.59334184  0.80471208  0.85946090    -0.01500
Br1279     Br  0.60326547  0.77801673  0.88221143    -0.00100
Br1280     Br  0.62479214  0.82382256  0.91317985    -0.00100
Br1281     Br  0.52308275  0.82856082  0.77657746    -0.00100
Br1282     Br  0.59408313  0.86831233  0.80478038    -0.00100
C1283       C  0.70327060  0.82621463  0.74777511    -0.01200
C1284       C  0.37590575  0.82333062  0.72003685     0.08500
C1285       C  0.37253874  0.80296878  0.70703827    -0.01300
C1286       C  0.36499424  0.78436448  0.72204824    -0.01300
C1287       C  0.66780303  0.79011983  0.74440897     0.08600
C1288       C  0.68650182  0.80802474  0.76042796    -0.01500
Br1289     Br  0.68347009  0.80926220  0.79903142    -0.00100
Br1290     Br  0.71783250  0.85198096  0.76940142    -0.00100
Br1291     Br  0.37216171  0.75634302  0.70559383    -0.00100
Br1292     Br  0.36817911  0.80052577  0.66743495    -0.00100
C1293       C  0.32586178  0.69962586  0.73644825    -0.01200
C1294       C  0.38148462  0.69746984  0.75476093     0.08500
C1295       C  0.41173053  0.67600410  0.76102155    -0.01300
C1296       C  0.38911210  0.65773835  0.74736780    -0.01300
C1297       C  0.33642668  0.66062421  0.72707588     0.08600
C1298       C  0.30330845  0.68133828  0.72293046    -0.01500
Br1299     Br  0.22732590  0.68466525  0.69766618    -0.00100
Br1300     Br  0.28101554  0.72746603  0.72777572    -0.00100
Br1301     Br  0.43362065  0.62911501  0.75432994    -0.00100
Br1302     Br  0.48703311  0.67127995  0.78658678    -0.00100
C1303       C  0.46849020  0.67531348  0.85886791    -0.01200
C1304       C  0.77265828  0.66121290  0.84282317     0.08500
C1305       C  0.72012881  0.66506930  0.82255286    -0.01300
C1306       C  0.70167564  0.68618123  0.81019812    -0.01300
C1307       C  0.40092493  0.70015359  0.82432152     0.08600
C1308       C  0.45551896  0.69514771  0.84298660    -0.01500
Br1309     Br  0.51127037  0.71596072  0.84808240    -0.00100
Br1310     Br  0.54045723  0.66969095  0.88677376    -0.00100
Br1311     Br  0.62198897  0.69293431  0.78992450    -0.00100
Br1312     Br  0.67054807  0.64208333  0.81425940    -0.00100
N1313       N  0.86841564  0.54923024  0.41944984    -0.26600
N1314       N  0.88779989  0.54781991  0.44685320    -0.34500
C1315       C  0.90107662  0.52670352  0.45512245     0.01700
C1316       C  0.88916747  0.51402635  0.43194773     0.07700
C1317       C  0.86899557  0.52882999  0.40952165    -0.05400
H1318       H  0.91263615  0.52100970  0.47676261     0.08400
H1319       H  0.85050812  0.52506409  0.38815914     0.09600
Cu1320     Cu  0.18698420  0.56703194  0.47127003     0.44200
Cu1321     Cu  0.17221677  0.57908772  0.39905295     0.42000
Cu1322     Cu  0.12254477  0.62002613  0.44793101     0.43900
N1323       N  0.15338107  0.58873349  0.49683612    -0.34000
N1324       N  0.12810997  0.60868053  0.48865546    -0.28300
C1325       C  0.10329278  0.61730961  0.50900612    -0.04400
C1326       C  0.11306740  0.60171683  0.53067504     0.07800
C1327       C  0.14482771  0.58391053  0.52210089     0.01600
H1328       H  0.07611780  0.63287294  0.50715787     0.09300
H1329       H  0.15761330  0.56800730  0.53265729     0.08400
N1330       N  0.12450338  0.62614066  0.40630418    -0.35500
N1331       N  0.14294748  0.61190452  0.38912806    -0.27700
C1332       C  0.13884989  0.62212244  0.36427518    -0.02900
C1333       C  0.11676171  0.64368825  0.36597411     0.05700
C1334       C  0.10819089  0.64567968  0.39274480     0.03800
H1335       H  0.15144642  0.61445702  0.34645499     0.08900
H1336       H  0.09192758  0.66039039  0.40183469     0.07700
N1337       N  0.62669530  0.55327922  0.15655023    -0.26600
N1338       N  0.63767020  0.54903907  0.13182921    -0.34500
C1339       C  0.63674720  0.52773265  0.12719904     0.01700
C1340       C  0.62519883  0.51754030  0.15008076     0.07700
C1341       C  0.61920623  0.53421183  0.16861547    -0.05400
H1342       H  0.64556822  0.52012419  0.10858644     0.08400
H1343       H  0.60963022  0.53264687  0.18900500     0.09600
Cu1344     Cu  0.65929674  0.57086187  0.10523625     0.44200
Cu1345     Cu  0.62361759  0.58556055  0.17000174     0.42000
Cu1346     Cu  0.66306216  0.62531708  0.11887249     0.43900
N1347       N  0.69150894  0.59112393  0.08063835    -0.34000
N1348       N  0.69219098  0.61222545  0.08490418    -0.28300
C1349       C  0.10804513  0.61805436  0.07330954    -0.04400
C1350       C  0.14264167  0.60198672  0.06264424     0.07800
C1351       C  0.15044316  0.58412611  0.08088139     0.01600
H1352       H  0.09139963  0.63427816  0.06433085     0.09300
H1353       H  0.72392523  0.56915122  0.05240310     0.08400
N1354       N  0.64050900  0.63288013  0.15658705    -0.35500
N1355       N  0.62759936  0.61927016  0.17479410    -0.27700
C1356       C  0.62352381  0.63021987  0.19808263    -0.02900
C1357       C  0.63432524  0.65155280  0.19427999     0.05700
C1358       C  0.64469135  0.65259770  0.16782833     0.03800
H1359       H  0.61743050  0.62279671  0.21708852     0.08900
H1360       H  0.65908771  0.66625610  0.15831428     0.07700
N1361       N  0.69621503  0.73953494  0.29061650    -0.02800
C1362       C  0.70948751  0.72608862  0.31398130    -0.00200
C1363       C  0.01234018  0.73386561  0.33172923    -0.23100
C1364       C  0.97796762  0.75208215  0.31923885    -0.23300
C1365       C  0.65811758  0.75678720  0.29619753    -0.00300
H1366       H  0.01011086  0.72607223  0.35123514     0.13400
H1367       H  0.94513435  0.76070893  0.32789086     0.13500
N1368       N  0.72996980  0.73869287  0.26996967    -0.02800
C1369       C  0.72674657  0.72412756  0.24883392    -0.00200
C1370       C  0.77222061  0.72538623  0.23590222    -0.23100
C1371       C  0.80664140  0.73958910  0.25039225    -0.23300
C1372       C  0.78116091  0.74793086  0.27117252    -0.00300
H1373       H  0.78320611  0.71493787  0.21976389     0.13400
H1374       H  0.84896750  0.74157376  0.24769184     0.13500
N1375       N  0.66586196  0.94805432  0.17730888    -0.26600
N1376       N  0.69500390  0.95770314  0.16166589    -0.34500
C1377       C  0.68208338  0.97950450  0.16236898     0.01700
C1378       C  0.00953024  0.97994228  0.18202776     0.07700
C1379       C  0.99284768  0.96021344  0.18909429    -0.05400
H1380       H  0.69577406  0.99129254  0.14947434     0.08400
H1381       H  0.95894948  0.95797156  0.20002684     0.09600
Cu1382     Cu  0.74064059  0.94078693  0.13555343     0.44200
Cu1383     Cu  0.66858400  0.91439677  0.18040166     0.42000
Cu1384     Cu  0.75620617  0.88246874  0.13781127     0.43900
N1385       N  0.75978982  0.92233109  0.10306276    -0.34000
N1386       N  0.76313037  0.90074581  0.10271681    -0.28300
C1387       C  0.76453954  0.89443868  0.07653016    -0.04400
C1388       C  0.76181069  0.91306978  0.05979332     0.07800
C1389       C  0.75927235  0.93031201  0.07752089     0.01600
H1390       H  0.76345806  0.87777270  0.06975200     0.09300
H1391       H  0.75286934  0.94759214  0.07182617     0.08400
N1392       N  0.73445001  0.87043496  0.17374604    -0.35500
N1393       N  0.69737949  0.88135053  0.18667833    -0.27700
C1394       C  0.68520861  0.86800354  0.20580990    -0.02900
C1395       C  0.71717646  0.84771184  0.20571389     0.05700
C1396       C  0.74879226  0.85008328  0.18538765     0.03800
H1397       H  0.65376422  0.87263287  0.21826662     0.08900
H1398       H  0.77822370  0.83762755  0.17863118     0.07700
N1399       N  0.91467844  0.96325915  0.39449162    -0.26600
N1400       N  0.94243548  0.96984366  0.41881334    -0.34500
C1401       C  0.92009739  0.99032269  0.42258908     0.01700
C1402       C  0.87676953  0.99717943  0.39935691     0.07700
C1403       C  0.87420696  0.97963150  0.38185359    -0.05400
H1404       H  0.93255253  0.99920174  0.44148211     0.08400
H1405       H  0.84299947  0.97834775  0.36235369     0.09600
Cu1406     Cu  0.00329531  0.94986606  0.44773162     0.44200
Cu1407     Cu  0.93035929  0.93127131  0.38256960     0.42000
Cu1408     Cu  0.04108644  0.89436470  0.43381913     0.43900
N1409       N  0.71563052  0.93161145  0.48492024    -0.34000
N1410       N  0.72652014  0.91035537  0.48165852    -0.28300
C1411       C  0.75085773  0.89921853  0.00924105    -0.04400
C1412       C  0.75203109  0.91533431  0.02898783     0.07800
C1413       C  0.73259656  0.93470540  0.01351533     0.01600
H1414       H  0.76031995  0.88171622  0.01333029     0.09300
H1415       H  0.72354515  0.95076150  0.02147951     0.08400
N1416       N  0.00182446  0.88654104  0.39331485    -0.35500
N1417       N  0.95769894  0.89871809  0.37667092    -0.27700
C1418       C  0.93163396  0.88623795  0.35642947    -0.02900
C1419       C  0.96127549  0.86527147  0.36002903     0.05700
C1420       C  0.00659550  0.86637947  0.38315742     0.03800
H1421       H  0.89134705  0.89165972  0.34153320     0.08900
H1422       H  0.03736065  0.85288265  0.39356428     0.07700
N1423       N  0.95009224  0.77019918  0.27203920    -0.02800
C1424       C  0.96001907  0.77775114  0.24738404    -0.00200
C1425       C  0.90706323  0.78438505  0.22900160    -0.23100
C1426       C  0.86360802  0.78209315  0.24257192    -0.23300
C1427       C  0.89031108  0.77452030  0.26928886    -0.00300
H1428       H  0.90082214  0.79261984  0.20880969     0.13400
H1429       H  0.81770061  0.78741966  0.23473261     0.13500
N1430       N  0.85746113  0.77462705  0.29129472    -0.02800
C1431       C  0.85975955  0.78895727  0.31284541    -0.00200
C1432       C  0.81938650  0.78521689  0.32795792    -0.23100
C1433       C  0.79023957  0.76889370  0.31581108    -0.23300
C1434       C  0.81040956  0.76328596  0.29231864    -0.00300
H1435       H  0.81140395  0.79373844  0.34616973     0.13400
H1436       H  0.75773163  0.76240853  0.32414452     0.13500
N1437       N  0.80971283  0.05317818  0.39244551    -0.26600
N1438       N  0.79606928  0.04623351  0.41537308    -0.34500
C1439       C  0.81121546  0.02456552  0.41889906     0.01700
C1440       C  0.83584324  0.01724124  0.39726249     0.07700
C1441       C  0.83420186  0.03583148  0.38074470    -0.05400
H1442       H  0.81216645  0.01538751  0.43791576     0.08400
H1443       H  0.85631587  0.03709781  0.36387948     0.09600
Cu1444     Cu  0.78171969  0.06627345  0.44692085     0.44200
Cu1445     Cu  0.80963884  0.08655545  0.38414301     0.42000
Cu1446     Cu  0.85208287  0.11471297  0.44980745     0.43900
N1447       N  0.80250637  0.08365247  0.48255111    -0.34000
N1448       N  0.83082681  0.10104236  0.48415947    -0.28300
C1449       C  0.84321686  0.10714858  0.51083280    -0.04400
C1450       C  0.82569596  0.09076684  0.02733681     0.07800
C1451       C  0.79661862  0.07800338  0.50807630     0.01600
H1452       H  0.86787147  0.12050889  0.51826394     0.09300
H1453       H  0.77780412  0.06363057  0.51288232     0.08400
N1454       N  0.84370144  0.12877710  0.41060338    -0.35500
N1455       N  0.82146314  0.11970013  0.38695275    -0.27700
C1456       C  0.81243431  0.13484935  0.36601860    -0.02900
C1457       C  0.83188775  0.15419925  0.37684205     0.05700
C1458       C  0.85174358  0.14948098  0.40520769     0.03800
H1459       H  0.79297159  0.13188185  0.34451937     0.08900
H1460       H  0.87059604  0.16031771  0.42099881     0.07700
N1461       N  0.94647146  0.03596852  0.18794191    -0.26600
N1462       N  0.91640868  0.03079817  0.16331596    -0.34500
C1463       C  0.93258843  0.00985715  0.15854260     0.01700
C1464       C  0.97464442  0.00124477  0.18122045     0.07700
C1465       C  0.98305157  0.01819014  0.19953893    -0.05400
H1466       H  0.91783814  0.00194862  0.13908689     0.08400
H1467       H  0.01543927  0.01798735  0.21895091     0.09600
Cu1468     Cu  0.86615873  0.05288905  0.13363943     0.44200
Cu1469     Cu  0.94013977  0.06800161  0.20155469     0.42000
Cu1470     Cu  0.90968679  0.10571941  0.14048504     0.43900
N1471       N  0.85075560  0.07494738  0.10049019    -0.34000
N1472       N  0.87070733  0.09416837  0.10253594    -0.28300
C1473       C  0.86259679  0.10336184  0.07684099    -0.04400
C1474       C  0.83640482  0.08907157  0.05782862     0.07800
C1475       C  0.82933283  0.07127477  0.07351879     0.01600
H1476       H  0.87667753  0.11884995  0.07233632     0.09300
H1477       H  0.81360088  0.05613907  0.06586321     0.08400
N1478       N  0.92499578  0.11518327  0.18132045    -0.35500
N1479       N  0.93059108  0.10207452  0.20344687    -0.27700
C1480       C  0.93260846  0.11442095  0.22609011    -0.02900
C1481       C  0.92971640  0.13629535  0.21782993     0.05700
C1482       C  0.92519775  0.13593513  0.18931019     0.03800
H1483       H  0.93657324  0.10785439  0.24699211     0.08900
H1484       H  0.92281585  0.14979962  0.17523911     0.07700
N1485       N  0.00571151  0.22800117  0.28906001    -0.02800
C1486       C  0.00028290  0.21512146  0.26614480    -0.00200
C1487       C  0.71066176  0.22046482  0.25248953    -0.23100
C1488       C  0.74430480  0.23482787  0.26711288    -0.23300
C1489       C  0.72280377  0.24020063  0.29046648    -0.00300
H1490       H  0.71807592  0.21225867  0.23397841     0.13400
H1491       H  0.78065651  0.24023699  0.26057264     0.13500
N1492       N  0.91463947  0.23444854  0.30923655    -0.02800
C1493       C  0.90417564  0.22717123  0.33393113    -0.00200
C1494       C  0.95678973  0.21898184  0.35170056    -0.23100
C1495       C  0.99919124  0.21842444  0.33700879    -0.23300
C1496       C  0.97308927  0.22738964  0.31095337    -0.00300
H1497       H  0.96228478  0.21055539  0.37173221     0.13400
H1498       H  0.04421418  0.21167772  0.34427348     0.13500
N1499       N  0.64192103  0.45842528  0.16479815    -0.26600
N1500       N  0.62575925  0.45992782  0.13725869    -0.34500
C1501       C  0.61241897  0.48096775  0.12887759     0.01700
C1502       C  0.62104870  0.49380548  0.15195780     0.07700
C1503       C  0.63940546  0.47896924  0.17465957    -0.05400
H1504       H  0.60265639  0.48655404  0.10721951     0.08400
H1505       H  0.65474401  0.48284235  0.19628457     0.09600
Cu1506     Cu  0.63878801  0.43528568  0.11044510     0.44200
Cu1507     Cu  0.67362902  0.42776852  0.18500573     0.42000
Cu1508     Cu  0.71551247  0.38559413  0.13463166     0.43900
N1509       N  0.67593485  0.41486454  0.08454276    -0.34000
N1510       N  0.70668861  0.39588270  0.09334439    -0.28300
C1511       C  0.73179699  0.38771865  0.07284912    -0.04400
C1512       C  0.71623209  0.40263532  0.05027891     0.07800
C1513       C  0.68087613  0.41956632  0.05857976     0.01600
H1514       H  0.76232654  0.37298023  0.07497461     0.09300
H1515       H  0.66291046  0.43486549  0.04723391     0.08400
N1516       N  0.71351654  0.37973196  0.17618155    -0.35500
N1517       N  0.69975163  0.39414897  0.19430666    -0.27700
C1518       C  0.70478296  0.38347581  0.21905832    -0.02900
C1519       C  0.72189651  0.36146138  0.21610239     0.05700
C1520       C  0.72708779  0.35979692  0.18881435     0.03800
H1521       H  0.69704089  0.39116929  0.23781005     0.08900
H1522       H  0.74086799  0.34510044  0.17892054     0.07700
N1523       N  0.81384174  0.39433599  0.49391207    -0.26600
N1524       N  0.81851263  0.41507964  0.49933437    -0.34500
C1525       C  0.74445495  0.42256584  0.01121477     0.01700
C1526       C  0.74008866  0.40347304  0.02505862     0.07700
C1527       C  0.76313843  0.38672691  0.01034778    -0.05400
H1528       H  0.73244029  0.43914766  0.01682750     0.08400
H1529       H  0.76685958  0.36930024  0.01481171     0.09600
Cu1530     Cu  0.84877446  0.43579516  0.47475279     0.44200
Cu1531     Cu  0.83540236  0.38248348  0.45721330     0.42000
Cu1532     Cu  0.86233206  0.42536046  0.40570343     0.43900
N1533       N  0.86897399  0.45870554  0.44935488    -0.34000
N1534       N  0.87061252  0.45606011  0.42292133    -0.28300
C1535       C  0.87905528  0.47536756  0.41201469    -0.04400
C1536       C  0.88373457  0.49047782  0.43304341     0.07800
C1537       C  0.87719781  0.47924156  0.45626871     0.01600
H1538       H  0.88139422  0.47819908  0.39056479     0.09300
H1539       H  0.87579058  0.48572172  0.47652876     0.08400
N1540       N  0.86185600  0.39175732  0.39953990    -0.35500
N1541       N  0.85442221  0.37699647  0.41792067    -0.27700
C1542       C  0.85613267  0.35726024  0.40645329    -0.02900
C1543       C  0.86472109  0.35949263  0.37974495     0.05700
C1544       C  0.86788612  0.38160090  0.37593502     0.03800
H1545       H  0.84807981  0.34245926  0.41625365     0.08900
H1546       H  0.87178239  0.38984495  0.35702382     0.07700
N1547       N  0.79758862  0.26645341  0.31254463    -0.02800
C1548       C  0.79656211  0.28182753  0.33246863    -0.00200
C1549       C  0.75254662  0.27938970  0.34591565    -0.23100
C1550       C  0.72186672  0.26374230  0.33251396    -0.23300
C1551       C  0.74919821  0.25573538  0.31192205    -0.00300
H1552       H  0.73914037  0.29005907  0.36131870     0.13400
H1553       H  0.01855626  0.25745562  0.33742282     0.13500
N1554       N  0.83162772  0.26605995  0.29203545    -0.02800
C1555       C  0.81920510  0.27986964  0.26884748    -0.00200
C1556       C  0.85566847  0.27367800  0.25149202    -0.23100
C1557       C  0.89292478  0.25621639  0.26423103    -0.23300
C1558       C  0.87798713  0.25095482  0.28893122    -0.00300
H1559       H  0.85862252  0.28235975  0.23269689     0.13400
H1560       H  0.92921539  0.24947500  0.25630213     0.13500
C1561       C  0.78540441  0.32271081  0.32877367    -0.01200
C1562       C  0.82297847  0.30273402  0.33527132     0.08500
C1563       C  0.87974127  0.30330641  0.35162451    -0.01300
C1564       C  0.89702224  0.32308018  0.36308484    -0.01300
C1565       C  0.85724288  0.34227339  0.35886887     0.08600
C1566       C  0.80330776  0.34245689  0.33981631    -0.01500
Br1567     Br  0.75098348  0.36933402  0.33130115    -0.00100
Br1568     Br  0.70570547  0.32296834  0.30824926    -0.00100
Br1569     Br  0.97426903  0.32390383  0.38591705    -0.00100
Br1570     Br  0.93131013  0.27678112  0.36156225    -0.00100
C1571       C  0.81692911  0.32044127  0.26852071    -0.01200
C1572       C  0.78535831  0.30206163  0.26426693     0.08500
C1573       C  0.72804681  0.30498504  0.24744491    -0.01300
C1574       C  0.70438546  0.32542596  0.23401780    -0.01300
C1575       C  0.73756355  0.34316436  0.23718147     0.08600
C1576       C  0.79227130  0.34103160  0.25592520    -0.01500
Br1577     Br  0.83617951  0.36579246  0.26192457    -0.00100
Br1578     Br  0.89770756  0.31681337  0.28786855    -0.00100
Br1579     Br  0.62733652  0.32900578  0.20982087    -0.00100
Br1580     Br  0.68296893  0.28091019  0.24019418    -0.00100
C1581       C  0.97988495  0.15581590  0.25985211    -0.01200
C1582       C  0.93636190  0.15608178  0.23495889     0.08500
C1583       C  0.90457025  0.17632980  0.22415036    -0.01300
C1584       C  0.92396069  0.19607083  0.23454765    -0.01300
C1585       C  0.96721273  0.19594187  0.25961887     0.08600
C1586       C  0.99141040  0.17555188  0.27309911    -0.01500
Br1587     Br  0.71189890  0.17562733  0.30882944    -0.00100
Br1588     Br  0.03096377  0.12942181  0.27405373    -0.00100
Br1589     Br  0.89351514  0.22268175  0.21271264    -0.00100
Br1590     Br  0.83354669  0.17725533  0.19550870    -0.00100
C1591       C  0.84918018  0.17509794  0.33547264    -0.01200
C1592       C  0.83425879  0.17515395  0.36175198     0.08500
C1593       C  0.82365328  0.19561057  0.37388831    -0.01300
C1594       C  0.83860470  0.21475395  0.36258298    -0.01300
C1595       C  0.85562297  0.21445052  0.33674680     0.08600
C1596       C  0.85145905  0.19503340  0.32181260    -0.01500
Br1597     Br  0.85156308  0.19512319  0.28306721    -0.00100
Br1598     Br  0.87272138  0.14828441  0.31855348    -0.00100
Br1599     Br  0.84535888  0.24015857  0.38507223    -0.00100
Br1600     Br  0.78828018  0.19800591  0.40571851    -0.00100
C1601       C  0.94035061  0.82635892  0.36346645    -0.01200
C1602       C  0.94066331  0.84507185  0.34673039     0.08500
C1603       C  0.91886173  0.84454755  0.31759797    -0.01300
C1604       C  0.89473925  0.82589243  0.30563395    -0.01300
C1605       C  0.89837151  0.80647875  0.32207736     0.08600
C1606       C  0.92446267  0.80680750  0.35109247    -0.01500
Br1607     Br  0.93463117  0.78097152  0.37544375    -0.00100
Br1608     Br  0.95020177  0.82815351  0.40358511    -0.00100
Br1609     Br  0.85644749  0.82808573  0.26690085    -0.00100
Br1610     Br  0.92182142  0.86935662  0.29370018    -0.00100
C1611       C  0.04510929  0.82460419  0.24570909    -0.01200
C1612       C  0.71004283  0.82725412  0.22053171     0.08500
C1613       C  0.70100195  0.80794352  0.20566577    -0.01300
C1614       C  0.68605494  0.78961740  0.21858641    -0.01300
C1615       C  0.01166651  0.78814576  0.24287576     0.08600
C1616       C  0.02768049  0.80659117  0.25843985    -0.01500
Br1617     Br  0.02055186  0.80858887  0.29642132    -0.00100
Br1618     Br  0.05875966  0.85064597  0.26689464    -0.00100
Br1619     Br  0.67490909  0.76395440  0.19709447    -0.00100
Br1620     Br  0.69785906  0.80723482  0.16593590    -0.00100
C1621       C  0.63649588  0.70670282  0.22652218    -0.01200
C1622       C  0.69353348  0.70472433  0.24368786     0.08500
C1623       C  0.72573667  0.68353550  0.24830108    -0.01300
C1624       C  0.70300942  0.66536301  0.23460467    -0.01300
C1625       C  0.64880081  0.66815742  0.21542571     0.08600
C1626       C  0.61444834  0.68855029  0.21244358    -0.01500
Br1627     Br  0.53837856  0.69175297  0.18724642    -0.00100
Br1628     Br  0.58871349  0.73409985  0.21982673    -0.00100
Br1629     Br  0.74961457  0.63710656  0.23944872    -0.00100
Br1630     Br  0.80485943  0.67946207  0.27031292    -0.00100
C1631       C  0.80506365  0.67627351  0.34765025    -0.01200
C1632       C  0.10661099  0.66166521  0.34484493     0.08500
C1633       C  0.05263727  0.66550022  0.32560486    -0.01300
C1634       C  0.03472718  0.68622991  0.31216398    -0.01300
C1635       C  0.73461152  0.70285075  0.31679114     0.08600
C1636       C  0.79067905  0.69702481  0.33392116    -0.01500
Br1637     Br  0.84584932  0.71806915  0.34073349    -0.00100
Br1638     Br  0.87901289  0.66919221  0.37378983    -0.00100
Br1639     Br  0.95531275  0.69289267  0.29115446    -0.00100
Br1640     Br  0.00085792  0.64310741  0.32006039    -0.00100
N1641       N  0.86693837  0.54870277  0.92132518    -0.26600
N1642       N  0.87764823  0.54640785  0.94883602    -0.34500
C1643       C  0.88311348  0.52509999  0.95606431     0.01700
C1644       C  0.87521880  0.51318511  0.93210785     0.07700
C1645       C  0.86561139  0.52864752  0.91035751    -0.05400
H1646       H  0.88572374  0.51895530  0.97706119     0.08400
H1647       H  0.85169924  0.52576945  0.88832518     0.09600
Cu1648     Cu  0.23424005  0.56830888  0.97467865     0.44200
Cu1649     Cu  0.19203393  0.57692900  0.89974520     0.42000
Cu1650     Cu  0.14436792  0.61679276  0.94941342     0.43900
N1651       N  0.19864370  0.58936720  0.00078723    -0.34000
N1652       N  0.16301790  0.60728490  0.99147994    -0.28300
C1653       C  0.14008689  0.61561986  0.01251925    -0.04400
C1654       C  0.16210860  0.60204393  0.03609716     0.07800
C1655       C  0.19927687  0.58567931  0.02782072     0.01600
H1656       H  0.10692555  0.62956160  0.01029655     0.09300
H1657       H  0.22207384  0.57129100  0.04000545     0.08400
N1658       N  0.14013958  0.62343477  0.90736349    -0.35500
N1659       N  0.15777165  0.60966873  0.88948686    -0.27700
C1660       C  0.15124175  0.62050866  0.86473682    -0.02900
C1661       C  0.12858004  0.64196581  0.86738425     0.05700
C1662       C  0.12201833  0.64316310  0.89451827     0.03800
H1663       H  0.16293338  0.61341463  0.84639921     0.08900
H1664       H  0.10620541  0.65753066  0.90441429     0.07700
N1665       N  0.67170013  0.55178292  0.66667656    -0.26600
N1666       N  0.70504676  0.54634459  0.64898415    -0.34500
C1667       C  0.70911913  0.52469979  0.64584961     0.01700
C1668       C  0.67720679  0.51577689  0.66241055     0.07700
C1669       C  0.65391837  0.53338845  0.67553876    -0.05400
H1670       H  0.73084431  0.51622261  0.63114062     0.08400
H1671       H  0.62320819  0.53306907  0.68880077     0.09600
Cu1672     Cu  0.73569558  0.56801647  0.62530897     0.44200
Cu1673     Cu  0.64929471  0.58458647  0.67402560     0.42000
Cu1674     Cu  0.68304630  0.62351576  0.62170312     0.43900
N1675       N  0.74987188  0.58917762  0.59555890    -0.34000
N1676       N  0.72742223  0.60993471  0.59269359    -0.28300
C1677       C  0.06722041  0.61824779  0.57039984    -0.04400
C1678       C  0.08567856  0.60125103  0.55474559     0.07800
C1679       C  0.07360263  0.58244969  0.56665735     0.01600
H1680       H  0.07046727  0.63549602  0.56767524     0.09300
H1681       H  0.79795165  0.56806396  0.57196675     0.08400
N1682       N  0.65560613  0.63209232  0.65799619    -0.35500
N1683       N  0.64455344  0.61851316  0.67673927    -0.27700
C1684       C  0.63835483  0.62976627  0.69950334    -0.02900
C1685       C  0.64575019  0.65132878  0.69480936     0.05700
C1686       C  0.65640415  0.65219803  0.66837535     0.03800
H1687       H  0.63379705  0.62243516  0.71886276     0.08900
H1688       H  0.66928932  0.66601532  0.65847635     0.07700
N1689       N  0.69591783  0.73998878  0.79067013    -0.02800
C1690       C  0.71008768  0.72601460  0.81358435    -0.00200
C1691       C  0.01066331  0.73285315  0.83348824    -0.23100
C1692       C  0.97589868  0.75083845  0.82045947    -0.23300
C1693       C  0.65504845  0.75627393  0.79623951    -0.00300
H1694       H  0.00719315  0.72497355  0.85273037     0.13400
H1695       H  0.94131464  0.75898262  0.82836457     0.13500
N1696       N  0.72845990  0.74006771  0.76960311    -0.02800
C1697       C  0.72120797  0.72730105  0.74672986    -0.00200
C1698       C  0.76068159  0.73119545  0.73115849    -0.23100
C1699       C  0.79516838  0.74558709  0.74525374    -0.23300
C1700       C  0.77685431  0.75079404  0.76940613    -0.00300
H1701       H  0.76772777  0.72263288  0.71282403     0.13400
H1702       H  0.83174682  0.75015655  0.73856379     0.13500
N1703       N  0.65462730  0.94743858  0.67695719    -0.26600
N1704       N  0.68197639  0.95700296  0.66040240    -0.34500
C1705       C  0.66889908  0.97879704  0.66081636     0.01700
C1706       C  0.00011160  0.97841832  0.67769593     0.07700
C1707       C  0.98562919  0.95874133  0.68644321    -0.05400
H1708       H  0.68120099  0.99044692  0.64723454     0.08400
H1709       H  0.95419953  0.95664640  0.69888955     0.09600
Cu1710     Cu  0.72545376  0.94007237  0.63360554     0.44200
Cu1711     Cu  0.65854332  0.91362563  0.68029378     0.42000
Cu1712     Cu  0.74467328  0.88216014  0.63558867     0.43900
N1713       N  0.74538053  0.92216506  0.60095187    -0.34000
N1714       N  0.75024027  0.90057801  0.60041624    -0.28300
C1715       C  0.75339745  0.89453225  0.57431639    -0.04400
C1716       C  0.75035835  0.91337960  0.55790171     0.07800
C1717       C  0.74561682  0.93043958  0.57568371     0.01600
H1718       H  0.75442043  0.87786126  0.56742685     0.09300
H1719       H  0.73887693  0.94776821  0.57025709     0.08400
N1720       N  0.72544080  0.86999889  0.67205032    -0.35500
N1721       N  0.68862174  0.88049119  0.68548621    -0.27700
C1722       C  0.67824306  0.86676003  0.70470800    -0.02900
C1723       C  0.71140051  0.84672745  0.70427426     0.05700
C1724       C  0.74165854  0.84966130  0.68355659     0.03800
H1725       H  0.64734071  0.87097200  0.71757124     0.08900
H1726       H  0.77187331  0.83767521  0.67656138     0.07700
N1727       N  0.91655229  0.96225121  0.89836765    -0.26600
N1728       N  0.94358435  0.96959662  0.92237609    -0.34500
C1729       C  0.92031504  0.99016981  0.92507798     0.01700
C1730       C  0.87713983  0.99626184  0.90147533     0.07700
C1731       C  0.87561768  0.97816559  0.88490357    -0.05400
H1732       H  0.93208442  0.99966251  0.94348470     0.08400
H1733       H  0.84486381  0.97623053  0.86545264     0.09600
Cu1734     Cu  0.00554632  0.95057015  0.95213923     0.44200
Cu1735     Cu  0.93378313  0.92999838  0.88775500     0.42000
Cu1736     Cu  0.04515773  0.89437111  0.93946373     0.43900
N1737       N  0.71995428  0.93021552  0.98632519    -0.34000
N1738       N  0.73131710  0.90891820  0.98350303    -0.28300
C1739       C  0.74356774  0.90021609  0.50722391    -0.04400
C1740       C  0.74352922  0.91601609  0.52730737     0.07800
C1741       C  0.72610943  0.93564212  0.51222635     0.01600
H1742       H  0.75189964  0.88265192  0.51089115     0.09300
H1743       H  0.71670687  0.95158319  0.52041725     0.08400
N1744       N  0.00444002  0.88517963  0.89969534    -0.35500
N1745       N  0.96089103  0.89729024  0.88261831    -0.27700
C1746       C  0.93556054  0.88473906  0.86228366    -0.02900
C1747       C  0.96501146  0.86373924  0.86619797     0.05700
C1748       C  0.00930355  0.86487558  0.88983547     0.03800
H1749       H  0.89615654  0.89022322  0.84682902     0.08900
H1750       H  0.04018876  0.85146378  0.90037638     0.07700
N1751       N  0.95170797  0.76983706  0.77365903    -0.02800
C1752       C  0.96329734  0.77803834  0.74964238    -0.00200
C1753       C  0.91185670  0.78687497  0.73164881    -0.23100
C1754       C  0.86767016  0.78551334  0.74484144    -0.23300
C1755       C  0.89208079  0.77569160  0.77068772    -0.00300
H1756       H  0.90777219  0.79590359  0.71215737     0.13400
H1757       H  0.82264366  0.79231868  0.73718360     0.13500
N1758       N  0.85780007  0.77553217  0.79205857    -0.02800
C1759       C  0.86078867  0.78927780  0.81428310    -0.00200
C1760       C  0.81905842  0.78572237  0.82865175    -0.23100
C1761       C  0.78823912  0.77020123  0.81529653    -0.23300
C1762       C  0.80881423  0.76487176  0.79179378    -0.00300
H1763       H  0.81103760  0.79394741  0.84705251     0.13400
H1764       H  0.75337778  0.76440719  0.82251895     0.13500
N1765       N  0.80917313  0.05209387  0.89293640    -0.26600
N1766       N  0.79408539  0.04531231  0.91557253    -0.34500
C1767       C  0.80900237  0.02364777  0.91938030     0.01700
C1768       C  0.83524339  0.01614563  0.89833526     0.07700
C1769       C  0.83458402  0.03464002  0.88179668    -0.05400
H1770       H  0.80920452  0.01464194  0.93842303     0.08400
H1771       H  0.85813259  0.03579410  0.86545238     0.09600
Cu1772     Cu  0.78015854  0.06539728  0.94715249     0.44200
Cu1773     Cu  0.81022020  0.08541242  0.88450535     0.42000
Cu1774     Cu  0.85270589  0.11331897  0.95013409     0.43900
N1775       N  0.80362097  0.08220550  0.98310496    -0.34000
N1776       N  0.83221424  0.09952210  0.98461836    -0.28300
C1777       C  0.84599625  0.10537615  0.01136078    -0.04400
C1778       C  0.82211508  0.09266046  0.52664813     0.07800
C1779       C  0.79916886  0.07629714  0.00879404     0.01600
H1780       H  0.87102423  0.11865760  0.01870468     0.09300
H1781       H  0.78025975  0.06196876  0.01367908     0.08400
N1782       N  0.84612196  0.12732618  0.91105182    -0.35500
N1783       N  0.82369826  0.11842273  0.88730903    -0.27700
C1784       C  0.81598469  0.13356742  0.86644254    -0.02900
C1785       C  0.83653167  0.15271931  0.87742665     0.05700
C1786       C  0.85573514  0.14785721  0.90580138     0.03800
H1787       H  0.79659320  0.13073538  0.84489576     0.08900
H1788       H  0.87523638  0.15847421  0.92171424     0.07700
N1789       N  0.94129176  0.03474682  0.68557957    -0.26600
N1790       N  0.91087605  0.03036962  0.66066938    -0.34500
C1791       C  0.92531339  0.00943535  0.65514429     0.01700
C1792       C  0.96635586  0.99992873  0.67767772     0.07700
C1793       C  0.97611627  0.01640531  0.69665167    -0.05400
H1794       H  0.91007528  0.00210381  0.63531945     0.08400
H1795       H  0.00859092  0.01552296  0.71610155     0.09600
Cu1796     Cu  0.86198340  0.05346280  0.63187562     0.44200
Cu1797     Cu  0.93857568  0.06661413  0.70010095     0.42000
Cu1798     Cu  0.91347853  0.10488623  0.63970956     0.43900
N1799       N  0.84666364  0.07623758  0.59949445    -0.34000
N1800       N  0.86953309  0.09488755  0.60180880    -0.28300
C1801       C  0.86133830  0.10443576  0.57630868    -0.04400
C1802       C  0.83217822  0.09093306  0.55711486     0.07800
C1803       C  0.82326494  0.07328557  0.57253196     0.01600
H1804       H  0.87804626  0.11943024  0.57199690     0.09300
H1805       H  0.80549739  0.05855362  0.56462108     0.08400
N1806       N  0.93039501  0.11379127  0.68072060    -0.35500
N1807       N  0.93369220  0.10068001  0.70261073    -0.27700
C1808       C  0.93548956  0.11300128  0.72529198    -0.02900
C1809       C  0.93451120  0.13482537  0.71724734     0.05700
C1810       C  0.93181449  0.13445992  0.68889005     0.03800
H1811       H  0.93725732  0.10649256  0.74600475     0.08900
H1812       H  0.93050598  0.14831923  0.67496807     0.07700
N1813       N  0.00862754  0.22712695  0.78701824    -0.02800
C1814       C  0.00253366  0.21396063  0.76438896    -0.00200
C1815       C  0.71210410  0.21923767  0.75220374    -0.23100
C1816       C  0.74685676  0.23305552  0.76735159    -0.23300
C1817       C  0.72657424  0.23782132  0.79121471    -0.00300
H1818       H  0.71875322  0.21141817  0.73333023     0.13400
H1819       H  0.78366197  0.23825752  0.76102199     0.13500
N1820       N  0.91958992  0.23284861  0.80860077    -0.02800
C1821       C  0.91160248  0.22598258  0.83397012    -0.00200
C1822       C  0.96558538  0.21897521  0.85135806    -0.23100
C1823       C  0.00662870  0.21891954  0.83593832    -0.23300
C1824       C  0.97802433  0.22659719  0.80964704    -0.00300
H1825       H  0.97334598  0.21097279  0.87179022     0.13400
H1826       H  0.05218159  0.21291029  0.84270048     0.13500
N1827       N  0.67040748  0.45739610  0.66931373    -0.26600
N1828       N  0.66140431  0.46054354  0.64199208    -0.34500
C1829       C  0.65617232  0.48199367  0.63580521     0.01700
C1830       C  0.66230494  0.49321046  0.66024862     0.07700
C1831       C  0.67110905  0.47712000  0.68128710    -0.05400
H1832       H  0.65457981  0.48877385  0.61522051     0.08400
H1833       H  0.68334638  0.47939532  0.70354172     0.09600
Cu1834     Cu  0.67448359  0.43660123  0.61430692     0.44200
Cu1835     Cu  0.69191131  0.42581580  0.68737633     0.42000
Cu1836     Cu  0.73241463  0.38348850  0.63718418     0.43900
N1837       N  0.70984553  0.41507188  0.58900088    -0.34000
N1838       N  0.73280159  0.39485300  0.59706829    -0.28300
C1839       C  0.75841543  0.38598739  0.57706491    -0.04400
C1840       C  0.75145649  0.40169875  0.55569016     0.07800
C1841       C  0.72061960  0.41984316  0.56415012     0.01600
H1842       H  0.78389977  0.37006536  0.57891637     0.09300
H1843       H  0.70976387  0.43585008  0.55375408     0.08400
N1844       N  0.72576784  0.37746743  0.67824894    -0.35500
N1845       N  0.71235186  0.39213011  0.69616224    -0.27700
C1846       C  0.71460956  0.38172089  0.72075066    -0.02900
C1847       C  0.72963082  0.35956705  0.71803430     0.05700
C1848       C  0.73642990  0.35753010  0.69096761     0.03800
H1849       H  0.70686580  0.38972537  0.73931323     0.08900
H1850       H  0.74980331  0.34260643  0.68140905     0.07700
N1851       N  0.77974659  0.39596937  0.98872774    -0.26600
N1852       N  0.76877966  0.41741089  0.98970634    -0.34500
C1853       C  0.79824383  0.42029531  0.52202269     0.01700
C1854       C  0.78033516  0.40188264  0.53202803     0.07700
C1855       C  0.79100083  0.38549877  0.51377603    -0.05400
H1856       H  0.79592467  0.43650875  0.53038308     0.08400
H1857       H  0.78046654  0.36886199  0.51416588     0.09600
Cu1858     Cu  0.79260626  0.43886299  0.96365001     0.44200
Cu1859     Cu  0.81496964  0.38311518  0.95591024     0.42000
Cu1860     Cu  0.84955261  0.42446335  0.90485189     0.43900
N1861       N  0.82765355  0.46056209  0.94249854    -0.34000
N1862       N  0.84772313  0.45622135  0.91991691    -0.28300
C1863       C  0.86756898  0.47444612  0.91183380    -0.04400
C1864       C  0.86035858  0.49057145  0.93085285     0.07800
C1865       C  0.83506180  0.48108343  0.94986224     0.01600
H1866       H  0.88725271  0.47565813  0.89411791     0.09300
H1867       H  0.82252541  0.48856741  0.96780772     0.08400
N1868       N  0.85006661  0.39059787  0.89981632    -0.35500
N1869       N  0.83995821  0.37637960  0.91815879    -0.27700
C1870       C  0.84286122  0.35631950  0.90757111    -0.02900
C1871       C  0.85519301  0.35775492  0.88150792     0.05700
C1872       C  0.85903161  0.37974340  0.87708341     0.03800
H1873       H  0.83333542  0.34182924  0.91748616     0.08900
H1874       H  0.86558857  0.38741283  0.85832198     0.07700
N1875       N  0.80276818  0.26349701  0.81371504    -0.02800
C1876       C  0.80581773  0.27722831  0.83560975    -0.00200
C1877       C  0.76566897  0.27306055  0.85070339    -0.23100
C1878       C  0.73364643  0.25794927  0.83673513    -0.23300
C1879       C  0.75584304  0.25209693  0.81373069    -0.00300
H1880       H  0.75494883  0.28244648  0.86778843     0.13400
H1881       H  0.01367422  0.26048131  0.83001266     0.13500
N1882       N  0.83526847  0.26392873  0.79267278    -0.02800
C1883       C  0.82110961  0.27803167  0.76978778    -0.00200
C1884       C  0.85628901  0.27230384  0.75167545    -0.23100
C1885       C  0.89450527  0.25483043  0.76365897    -0.23300
C1886       C  0.88135831  0.24916626  0.78866626    -0.00300
H1887       H  0.85798388  0.28137247  0.73295063     0.13400
H1888       H  0.93032196  0.24844208  0.75511044     0.13500
C1889       C  0.78564553  0.31794506  0.83157827    -0.01200
C1890       C  0.82733736  0.29908360  0.83818391     0.08500
C1891       C  0.88293845  0.30141352  0.85479147    -0.01300
C1892       C  0.89513821  0.32181029  0.86614633    -0.01300
C1893       C  0.85155461  0.33987179  0.86146939     0.08600
C1894       C  0.79843863  0.33832834  0.84245656    -0.01500
Br1895     Br  0.74048680  0.36365217  0.83375675    -0.00100
Br1896     Br  0.70708583  0.31546203  0.81156409    -0.00100
Br1897     Br  0.97062498  0.32500185  0.88936196    -0.00100
Br1898     Br  0.94036445  0.27638524  0.86460238    -0.00100
C1899       C  0.82026148  0.31843003  0.77141088    -0.01200
C1900       C  0.78797838  0.30028630  0.76638985     0.08500
C1901       C  0.73084427  0.30364753  0.74946760    -0.01300
C1902       C  0.70853107  0.32418116  0.73607111    -0.01300
C1903       C  0.74297346  0.34152962  0.73942340     0.08600
C1904       C  0.79682438  0.33914340  0.75887705    -0.01500
Br1905     Br  0.84137520  0.36366767  0.76596789    -0.00100
Br1906     Br  0.90078960  0.31419707  0.79127164    -0.00100
Br1907     Br  0.63172631  0.32842709  0.71170450    -0.00100
Br1908     Br  0.68424730  0.27999184  0.74231546    -0.00100
C1909       C  0.98190460  0.15464347  0.75957882    -0.01200
C1910       C  0.93953274  0.15468527  0.73432122     0.08500
C1911       C  0.90761143  0.17480827  0.72307084    -0.01300
C1912       C  0.92598383  0.19469201  0.73347180    -0.01300
C1913       C  0.96931519  0.19479052  0.75846793     0.08600
C1914       C  0.99351191  0.17455424  0.77236575    -0.01500
Br1915     Br  0.71944293  0.17315499  0.80559444    -0.00100
Br1916     Br  0.03085561  0.12813354  0.77511345    -0.00100
Br1917     Br  0.89416682  0.22127876  0.71177641    -0.00100
Br1918     Br  0.83802572  0.17533486  0.69360319    -0.00100
C1919       C  0.85486559  0.17359552  0.83619164    -0.01200
C1920       C  0.84031073  0.17364001  0.86255698     0.08500
C1921       C  0.83229316  0.19403318  0.87522202    -0.01300
C1922       C  0.85005976  0.21282002  0.86453513    -0.01300
C1923       C  0.86503211  0.21268198  0.83819468     0.08600
C1924       C  0.85862534  0.19351237  0.82283897    -0.01500
Br1925     Br  0.85644614  0.19382205  0.78381018    -0.00100
Br1926     Br  0.87631601  0.14675439  0.81877093    -0.00100
Br1927     Br  0.86419182  0.23697267  0.88877001    -0.00100
Br1928     Br  0.79691944  0.19687295  0.90702307    -0.00100
C1929       C  0.94415008  0.82451546  0.86735408    -0.01200
C1930       C  0.94566982  0.84371127  0.85174005     0.08500
C1931       C  0.92486623  0.84403407  0.82247231    -0.01300
C1932       C  0.89877427  0.82609599  0.80942624    -0.01300
C1933       C  0.90095881  0.80618703  0.82468163     0.08600
C1934       C  0.92708706  0.80548115  0.85377586    -0.01500
Br1935     Br  0.93501538  0.77897208  0.87661377    -0.00100
Br1936     Br  0.95402438  0.82497594  0.90753751    -0.00100
Br1937     Br  0.85779729  0.83034704  0.77120483    -0.00100
Br1938     Br  0.93224737  0.86899034  0.79981024    -0.00100
C1939       C  0.04692945  0.82362529  0.74527437    -0.01200
C1940       C  0.70625585  0.82605649  0.71932594     0.08500
C1941       C  0.69691896  0.80669513  0.70456510    -0.01300
C1942       C  0.67723862  0.78910518  0.71687709    -0.01300
C1943       C  0.01726886  0.78670983  0.74558370     0.08600
C1944       C  0.03210106  0.80589072  0.75960428    -0.01500
Br1945     Br  0.02305856  0.80949334  0.79713312    -0.00100
Br1946     Br  0.05895598  0.85057834  0.76467398    -0.00100
Br1947     Br  0.65469870  0.76529330  0.69342630    -0.00100
Br1948     Br  0.70109817  0.80489790  0.66568385    -0.00100
C1949       C  0.63624280  0.70670527  0.72609865    -0.01200
C1950       C  0.69353149  0.70663392  0.74244206     0.08500
C1951       C  0.73070380  0.68652119  0.74688004    -0.01300
C1952       C  0.71213294  0.66746387  0.73392748    -0.01300
C1953       C  0.65731143  0.66848771  0.71537371     0.08600
C1954       C  0.61842404  0.68776934  0.71253248    -0.01500
Br1955     Br  0.54171144  0.68840226  0.68838293    -0.00100
Br1956     Br  0.58198789  0.73253918  0.72036817    -0.00100
Br1957     Br  0.76453679  0.64052663  0.73909031    -0.00100
Br1958     Br  0.81048638  0.68545108  0.76736545    -0.00100
C1959       C  0.81085609  0.67739740  0.84737428    -0.01200
C1960       C  0.11499813  0.66054587  0.84678575     0.08500
C1961       C  0.05955907  0.66412909  0.82873044    -0.01300
C1962       C  0.03872674  0.68499973  0.81608317    -0.01300
C1963       C  0.73812140  0.70305155  0.81608284     0.08600
C1964       C  0.79414004  0.69810175  0.83362269    -0.01500
Br1965     Br  0.84535586  0.72044576  0.84162542    -0.00100
Br1966     Br  0.88372783  0.67180800  0.87468135    -0.00100
Br1967     Br  0.95816239  0.69079190  0.79666621    -0.00100
Br1968     Br  0.01006221  0.64098884  0.82359557    -0.00100
loop_ 
_geom_bond_atom_site_label_1 
_geom_bond_atom_site_label_2 
_geom_bond_distance 
_geom_bond_site_symmetry_2 
_ccdc_geom_bond_type 
N1            N2   1.320       .  A
N1            C5   1.349       .  A
N1        Cu1321   2.071       .  S
N2            C3   1.338       .  A
N2        Cu1320   2.055       .  S
C3            C4   1.379       .  A
C3            H6   1.082       .  S
C4            C5   1.385       .  A
C4          C224   1.465       .  S
C5            H7   1.082       .  S
Cu8          N11   2.041       .  S
Cu8         N658   2.042       .  S
Cu9          N19   2.098       .  S
Cu9         N657   2.093       .  S
Cu10         N12   2.099       .  S
Cu10         N18   2.103       .  S
N11          N12   1.319       .  A
N11          C15   1.335       .  A
N12          C13   1.355       .  A
C13          C14   1.394       .  A
C13          H16   1.082       .  S
C14          C15   1.376       .  A
C14         C366   1.475       .  S
C15          H17   1.080       .  S
N18          N19   1.328       .  A
N18          C22   1.347       .  A
N19          C20   1.349       .  A
C20          C21   1.386       .  A
C20          H23   1.082       .  S
C21          C22   1.385       .  A
C21         C320   1.489       .  S
C22          H24   1.082       .  S
N25          N26   1.320       .  A
N25          C29   1.355       .  A
N25         Cu33   2.088       .  S
N26          C27   1.335       .  A
N26         Cu32   2.053       .  S
C27          C28   1.379       .  A
C27          H30   1.082       .  S
C28          C29   1.391       .  A
C28         C190   1.472       .  S
C29          H31   1.082   1_455  S
Cu32         N35   2.054       .  S
Cu33         N43   2.091   1_455  S
Cu34         N36   2.095       .  S
Cu34         N42   2.098       .  S
N35          N36   1.319       .  A
N35        C1351   1.340       .  A
N36        C1349   1.353       .  A
C37         N692   1.350       .  A
C37          C38   1.387       .  A
C37          H40   1.082       .  S
C38          C39   1.381       .  A
C38         C342   1.469       .  S
C39         N691   1.340       .  A
C39         H697   1.082       .  S
H41        C1351   1.082       .  S
N42          N43   1.328   1_455  A
N42          C46   1.344       .  A
N43          C44   1.349       .  A
C44          C45   1.384       .  A
C44          H47   1.082       .  S
C45          C46   1.383   1_655  A
C45         C313   1.480       .  S
C46          H48   1.082       .  S
N49          C53   1.387   1_455  A
N49          C50   1.365       .  A
N49          N56   1.424       .  S
C50        C1363   1.372       .  A
C50         C323   1.478       .  S
C51          C52   1.361       .  A
C51         C706   1.371       .  A
C51          H54   1.083       .  S
C52         C709   1.379       .  A
C52          H55   1.053       .  S
C53        C1364   1.382       .  A
C53        N1423   1.465       .  S
N56          C60   1.391       .  A
N56          C57   1.372       .  A
C57          C58   1.376       .  A
C57         C310   1.501       .  S
C58          C59   1.363       .  A
C58          H61   1.082       .  S
C59          C60   1.378       .  A
C59          H62   1.064       .  S
C60         C122   1.524       .  S
N63          N64   1.320       .  A
N63        C1379   1.345   1_455  A
N63         Cu71   2.067       .  S
N64          C65   1.343       .  A
N64         Cu70   2.067       .  S
C65        C1378   1.383       .  A
C65          H68   1.082       .  S
C66          C67   1.386       .  A
C66         C721   1.382       .  A
C66         C152   1.469   1_565  S
C67         N719   1.349       .  A
C67          H69   1.082       .  S
Cu70         N73   2.066       .  S
Cu71         N81   2.065       .  S
Cu72         N74   2.093       .  S
Cu72         N80   2.095       .  S
N73          N74   1.321       .  A
N73          C77   1.340       .  A
N74          C75   1.354       .  A
C75          C76   1.391       .  A
C75          H78   1.082       .  S
C76          C77   1.382       .  A
C76         C100   1.480       .  S
C77          H79   1.082       .  S
N80          N81   1.322       .  A
N80          C84   1.345       .  A
N81          C82   1.343       .  A
C82          C83   1.385       .  A
C82          H85   1.081   1_455  S
C83          C84   1.392       .  A
C83         C300   1.494       .  S
C84          H86   1.081       .  S
N87          N88   1.321       .  A
N87          C91   1.349       .  A
N87         Cu95   2.073       .  S
N88          C89   1.342       .  A
N88         Cu94   2.068       .  S
C89          C90   1.382       .  A
C89          H92   1.082       .  S
C90          C91   1.383       .  A
C90         C128   1.468   1_565  S
C91          H93   1.082       .  S
Cu94        N753   2.066       .  S
Cu95        N105   2.075       .  S
Cu96        N104   2.101       .  S
Cu96        N754   2.101       .  S
N97          N98   1.320       .  A
N97         C429   1.339       .  A
N97       Cu1406   2.062       .  S
N98         C427   1.354       .  A
N98       Cu1408   2.087       .  S
C99         N426   1.353   1_554  A
C99         C100   1.390       .  A
C99         H102   1.082       .  S
C100        C101   1.383       .  A
C101        N425   1.341   1_554  A
C101        H103   1.082       .  S
N104        N105   1.323       .  A
N104        C108   1.346       .  A
N105        C106   1.345       .  A
C106        C107   1.386       .  A
C106        H109   1.081       .  S
C107        C108   1.392       .  A
C107        C290   1.498       .  S
C108        H110   1.081       .  S
N111        C115   1.393       .  A
N111        C112   1.375       .  A
N111        C709   1.472       .  S
C112        C113   1.389       .  A
C112        C303   1.499       .  S
C113        C114   1.362       .  A
C113        H116   1.083       .  S
C114        C115   1.376       .  A
C114        H117   1.082       .  S
C115        N118   1.468       .  S
N118        C122   1.396       .  A
N118        C119   1.383       .  A
C119        C120   1.371       .  A
C119        C293   1.504       .  S
C120        C121   1.350       .  A
C120        H123   1.083       .  S
C121        C122   1.379       .  A
C121        H124   1.063       .  S
N125        N126   1.320       .  A
N125        C129   1.350       .  A
N125       Cu133   2.090       .  S
N126        C127   1.340       .  A
N126       Cu132   2.049       .  S
C127        C128   1.377       .  A
C127        H130   1.082       .  S
C128        C129   1.388       .  A
C129        H131   1.082       .  S
Cu132       N135   2.049       .  S
Cu133       N143   2.093       .  S
Cu134       N136   2.065       .  S
Cu134       N142   2.065       .  S
N135        N136   1.320       .  A
N135        C139   1.337       .  A
N136        C137   1.347       .  A
C137        C466   1.385       .  A
C137        H140   1.082       .  S
C138        C465   1.386       .  A
C138        C467   1.380       .  A
C138        C162   1.469       .  S
C139        C466   1.379       .  A
C139        H141   1.082       .  S
N142        N143   1.323       .  A
N142        C146   1.339       .  A
N143        C144   1.349       .  A
C144        C145   1.393       .  A
C144        H147   1.081       .  S
C145        C146   1.382       .  A
C145        C280   1.491       .  S
C146        H148   1.081       .  S
N149        N150   1.322       .  A
N149        C153   1.351       .  A
N149       Cu157   2.094       .  S
N150        C151   1.341       .  A
N150       Cu156   2.060       .  S
C151        C152   1.378       .  A
C151        H154   1.082       .  S
C152        C153   1.388       .  A
C153        H155   1.082       .  S
Cu156       N159   2.060       .  S
Cu157       N167   2.094       .  S
Cu158       N160   2.063       .  S
Cu158       N166   2.063       .  S
N159        N160   1.319       .  A
N159        C163   1.341       .  A
N160        C161   1.346       .  A
C161        C162   1.384       .  A
C161        H164   1.082       .  S
C162        C163   1.383       .  A
C163        H165   1.082       .  S
N166        N167   1.322       .  A
N166        C170   1.339       .  A
N167        C168   1.350       .  A
C168        C169   1.393       .  A
C168        H171   1.081       .  S
C169        C170   1.383       .  A
C169        C270   1.492       .  S
C170        H172   1.082       .  S
N173        C174   1.373       .  A
N173        C833   1.385       .  A
N173        C184   1.461       .  S
C174        C831   1.372       .  A
C174        C273   1.489       .  S
C175        C176   1.362       .  A
C175       C1486   1.373       .  A
C175        H178   1.083       .  S
C176        C177   1.384       .  A
C176        H179   1.071       .  S
C177       N1485   1.385       .  A
C177        C239   1.513       .  S
N180        C184   1.388       .  A
N180        C181   1.373       .  A
N180        C246   1.473       .  S
C181        C182   1.390       .  A
C181        C283   1.494       .  S
C182        C183   1.361       .  A
C182        H185   1.083       .  S
C183        C184   1.372       .  A
C183        H186   1.078       .  S
N187        N188   1.319       .  A
N187        C191   1.356       .  A
N187       Cu195   2.091       .  S
N188        C189   1.334       .  A
N188       Cu194   2.040       .  S
C189        C190   1.376       .  A
C189        H192   1.082       .  S
C190        C191   1.393       .  A
C191        H193   1.082       .  S
Cu194       N197   2.041       .  S
Cu195       N205   2.097       .  S
Cu196       N198   2.103       .  S
Cu196       N204   2.109       .  S
N197        N198   1.317       .  A
N197        C201   1.335       .  A
N198        C199   1.357       .  A
C199        C200   1.396       .  A
C199        H202   1.082       .  S
C200        C201   1.378       .  A
C200        C214   1.479       .  S
C201        H203   1.082       .  S
N204        N205   1.330       .  A
N204        C208   1.345       .  A
N205        C206   1.350       .  A
C206        C207   1.382       .  A
C206        H209   1.082       .  S
C207        C208   1.382       .  A
C207        C263   1.480       .  S
C208        H210   1.082       .  S
N211        N212   1.319       .  A
N211        C543   1.353       .  A
N211       Cu219   2.097       .  S
N212        C541   1.339       .  A
N212       Cu218   2.049       .  S
C213        N540   1.336   1_554  A
C213        C214   1.380       .  A
C213        H216   1.081       .  S
C214        C215   1.393       .  A
C215        N539   1.356   1_554  A
C215        H217   1.082       .  S
Cu218       N221   2.049       .  S
Cu219       N229   2.100       .  S
Cu220       N222   2.077       .  S
Cu220       N228   2.081       .  S
N221        N222   1.320       .  A
N221        C225   1.337       .  A
N222        C223   1.351       .  A
C223        C224   1.386       .  A
C223        H226   1.082       .  S
C224        C225   1.377       .  A
C225        H227   1.082       .  S
N228        N229   1.327       .  A
N228        C232   1.348       .  A
N229        C230   1.344       .  A
C230        C231   1.384       .  A
C230        H233   1.082       .  S
C231        C232   1.383       .  A
C231        C253   1.481       .  S
C232        H234   1.082       .  S
N235        C239   1.382       .  A
N235        C236   1.370       .  A
N235        N242   1.423       .  S
C236        C237   1.374       .  A
C236        C250   1.488       .  S
C237        C238   1.359       .  A
C237        H240   1.083       .  S
C238        C239   1.382       .  A
C238       H1553   1.066       .  S
H241        C894   1.064       .  S
N242        C246   1.390       .  A
N242        C243   1.373       .  A
C243        C244   1.374       .  A
C243        C260   1.492       .  S
C244        C245   1.361       .  A
C244        H247   1.083       .  S
C245        C246   1.381       .  A
C245        H248   1.064       .  S
C249        C250   1.419       .  A
C249        C254   1.406       .  A
C249       Br256   1.929       .  S
C250        C251   1.411       .  A
C251        C252   1.410       .  A
C251       Br258   1.912       .  S
C252        C253   1.407       .  A
C252       Br257   1.930       .  S
C253        C254   1.408       .  A
C254       Br255   1.933       .  S
C259        C260   1.415       .  A
C259        C264   1.407       .  A
C259       Br266   1.911       .  S
C260        C261   1.414       .  A
C261        C262   1.412       .  A
C261       Br268   1.912       .  S
C262        C263   1.406       .  A
C262       Br267   1.929   1_455  S
C263        C264   1.404       .  A
C264       Br265   1.932       .  S
C269        C270   1.414       .  A
C269        C274   1.411       .  A
C269       Br276   1.933       .  S
C270        C271   1.413       .  A
C271        C272   1.406       .  A
C271       Br278   1.934       .  S
C272        C273   1.415       .  A
C272       Br277   1.928       .  S
C273        C274   1.413       .  A
C274       Br931   1.913       .  S
Br275      C1586   1.907   1_455  S
C279        C280   1.412       .  A
C279        C284   1.407       .  A
C279       Br286   1.932       .  S
C280        C281   1.414       .  A
C281        C282   1.408       .  A
C281       Br288   1.934       .  S
C282        C283   1.417       .  A
C282       Br287   1.921       .  S
C283        C284   1.411       .  A
C284       Br285   1.906       .  S
C289        C290   1.412       .  A
C289        C294   1.408       .  A
C289       Br296   1.938       .  S
C290        C291   1.415       .  A
C291        C292   1.417       .  A
C291       Br298   1.934       .  S
C292        C293   1.418       .  A
C292       Br297   1.918       .  S
C293        C294   1.425       .  A
C294       Br295   1.943       .  S
C299        C304   1.415       .  A
C299        C956   1.419       .  A
C299       Br306   1.936       .  S
C300        C301   1.413       .  A
C300       C1611   1.416       .  A
C301        C302   1.407       .  A
C301       Br308   1.939       .  S
C302       C1615   1.417       .  A
C302       Br307   1.919       .  S
C303        C304   1.411       .  A
C303        C958   1.413       .  A
C304       Br305   1.913       .  S
C309        C310   1.415   1_655  A
C309        C314   1.410       .  A
C309       Br316   1.896       .  S
C310        C311   1.421       .  A
C311        C312   1.408       .  A
C311       Br318   1.927       .  S
C312        C313   1.406   1_455  A
C312       Br317   1.932       .  S
C313        C314   1.402       .  A
C314       Br315   1.933       .  S
C319        C324   1.407       .  A
C319       C1632   1.405       .  A
C319       Br326   1.931       .  S
C320        C321   1.411       .  A
C320        C975   1.410       .  A
C321        C322   1.409       .  A
C321       Br328   1.933       .  S
C322        C979   1.415       .  A
C322       Br327   1.928       .  S
C323        C324   1.412       .  A
C323       C1634   1.416       .  A
C324       Br325   1.920       .  S
N329        N330   1.322       .  A
N329        C333   1.354       .  A
N329      Cu1649   2.094       .  S
N330        C331   1.339       .  A
N330      Cu1648   2.073       .  S
C331        C332   1.383       .  A
C331        H334   1.082       .  S
C332        C333   1.390       .  A
C332        C552   1.481       .  S
C333        H335   1.082       .  S
Cu336       N986   2.053       .  S
Cu336       N339   2.054   1_556  S
Cu337       N985   2.077       .  S
Cu337       N347   2.080       .  S
Cu338       N340   2.085       .  S
Cu338       N346   2.087       .  S
N339        N340   1.320   1_554  A
N339        C343   1.340       .  A
N340        C341   1.350   1_556  A
C341        C342   1.387       .  A
C341        H344   1.082       .  S
C342        C343   1.379       .  A
C343        H345   1.082       .  S
N346        N347   1.326       .  A
N346        C350   1.344       .  A
N347        C348   1.349       .  A
C348        C349   1.382       .  A
C348        H351   1.082       .  S
C349        C350   1.382       .  A
C349        C648   1.477       .  S
C350        H352   1.082       .  S
N353        N354   1.319       .  A
N353        C357   1.356       .  A
N353       Cu361   2.092       .  S
N354        C355   1.333       .  A
N354       Cu360   2.041   1_655  S
C355        C356   1.376       .  A
C355        H358   1.082   1_655  S
C356        C357   1.393       .  A
C356        C518   1.473       .  S
C357        H359   1.082       .  S
Cu360       N363   2.042       .  S
Cu361       N371   2.097       .  S
Cu362       N364   2.086       .  S
Cu362       N370   2.090   1_455  S
N363        N364   1.317       .  A
N363       C1679   1.337       .  A
N364       C1677   1.353       .  A
C365       N1020   1.351       .  A
C365        C366   1.386       .  A
C365        H368   1.082       .  S
C366        C367   1.384       .  A
C367       N1019   1.339       .  A
C367       H1025   1.081       .  S
H369       C1679   1.082       .  S
N370        N371   1.329       .  A
N370        C374   1.342       .  A
N371        C372   1.349       .  A
C372        C373   1.384       .  A
C372        H375   1.082       .  S
C373        C374   1.379       .  A
C373        C641   1.477       .  S
C374        H376   1.082   1_655  S
N377        C381   1.392   1_455  A
N377        C378   1.369       .  A
N377        N384   1.423       .  S
C378       C1691   1.372       .  A
C378        C651   1.488       .  S
C379       C1034   1.369       .  A
C379        C380   1.359       .  A
C379        H382   1.082       .  S
C380       C1037   1.381       .  A
C380        H383   1.027       .  S
C381       C1692   1.383       .  A
C381       N1751   1.473       .  S
N384        C388   1.389       .  A
N384        C385   1.373       .  A
C385        C386   1.377       .  A
C385        C638   1.501       .  S
C386        C387   1.361       .  A
C386        H389   1.082       .  S
C387        C388   1.377       .  A
C387        H390   1.067       .  S
C388        C450   1.517       .  S
N391        N392   1.320       .  A
N391       C1707   1.347   1_455  A
N391       Cu399   2.077       .  S
N392        C393   1.342       .  A
N392       Cu398   2.063       .  S
C393       C1706   1.382       .  A
C393        H396   1.082       .  S
C394       C1049   1.383       .  A
C394        C395   1.383       .  A
C394        C480   1.464   1_565  S
C395       N1047   1.346       .  A
C395        H397   1.082       .  S
Cu398       N401   2.062       .  S
Cu399       N409   2.076       .  S
Cu400       N402   2.092       .  S
Cu400       N408   2.094       .  S
N401        N402   1.320       .  A
N401        C405   1.338       .  A
N402        C403   1.355       .  A
C403        C404   1.392       .  A
C403        H406   1.082       .  S
C404        C405   1.381       .  A
C404        C428   1.479       .  S
C405        H407   1.081       .  S
N408        N409   1.322       .  A
N408        C412   1.346       .  A
N409        C410   1.343       .  A
C410        C411   1.388       .  A
C410        H413   1.081   1_455  S
C411        C412   1.392       .  A
C411        C628   1.499       .  S
C412        H414   1.080       .  S
N415        N416   1.320       .  A
N415        C419   1.348       .  A
N415       Cu423   2.066       .  S
N416        C417   1.341       .  A
N416       Cu422   2.068       .  S
C417        C418   1.382       .  A
C417        H420   1.082       .  S
C418        C419   1.383       .  A
C418        C456   1.466   1_565  S
C419        H421   1.082       .  S
Cu422      N1081   2.066       .  S
Cu423       N433   2.067       .  S
Cu424      N1082   2.102       .  S
Cu424       N432   2.102       .  S
N425        N426   1.321       .  A
N425      Cu1734   2.069       .  S
N426      Cu1736   2.092       .  S
C427        C428   1.390       .  A
C427        H430   1.082       .  S
C428        C429   1.382       .  A
C429        H431   1.082       .  S
N432        N433   1.323       .  A
N432        C436   1.347       .  A
N433        C434   1.343       .  A
C434        C435   1.384       .  A
C434        H437   1.081       .  S
C435        C436   1.392       .  A
C435        C618   1.495       .  S
C436        H438   1.081       .  S
N439        C443   1.389       .  A
N439        C440   1.371       .  A
N439       C1037   1.466       .  S
C440        C441   1.389       .  A
C440        C631   1.497       .  S
C441        C442   1.365       .  A
C441        H444   1.083       .  S
C442        C443   1.376       .  A
C442        H445   1.080       .  S
C443        N446   1.469       .  S
N446        C450   1.392       .  A
N446        C447   1.382       .  A
C447        C448   1.372       .  A
C447        C621   1.502       .  S
C448        C449   1.352       .  A
C448        H451   1.083       .  S
C449        C450   1.379       .  A
C449        H452   1.066       .  S
N453        N454   1.321       .  A
N453        C457   1.349       .  A
N453       Cu461   2.088       .  S
N454        C455   1.340       .  A
N454       Cu460   2.053       .  S
C455        C456   1.378       .  A
C455        H458   1.082       .  S
C456        C457   1.387       .  A
C457        H459   1.082       .  S
Cu460       N463   2.054       .  S
Cu461       N471   2.089       .  S
Cu462       N464   2.079       .  S
Cu462       N470   2.079       .  S
N463        N464   1.321       .  A
N463        C467   1.340   1_556  A
N464        C465   1.348   1_556  A
C465        H468   1.082       .  S
C466        C490   1.464       .  S
C467        H469   1.082       .  S
N470        N471   1.322       .  A
N470        C474   1.342       .  A
N471        C472   1.348       .  A
C472        C473   1.393       .  A
C472        H475   1.080       .  S
C473        C474   1.387       .  A
C473        C608   1.499       .  S
C474        H476   1.081       .  S
N477        N478   1.321       .  A
N477        C481   1.350       .  A
N477       Cu485   2.082       .  S
N478        C479   1.340       .  A
N478       Cu484   2.050       .  S
C479        C480   1.376       .  A
C479        H482   1.082       .  S
C480        C481   1.386       .  A
C481        H483   1.082       .  S
Cu484       N487   2.049       .  S
Cu485       N495   2.084       .  S
Cu486       N488   2.060       .  S
Cu486       N494   2.061       .  S
N487        N488   1.319       .  A
N487        C491   1.337       .  A
N488        C489   1.347       .  A
C489        C490   1.385       .  A
C489        H492   1.082       .  S
C490        C491   1.379       .  A
C491        H493   1.082       .  S
N494        N495   1.323       .  A
N494        C498   1.337       .  A
N495        C496   1.348       .  A
C496        C497   1.390       .  A
C496        H499   1.081       .  S
C497        C498   1.381       .  A
C497        C598   1.485       .  S
C498        H500   1.082       .  S
N501       C1161   1.384       .  A
N501        C502   1.372       .  A
N501        C512   1.462       .  S
C502       C1159   1.373       .  A
C502        C601   1.487       .  S
C503       C1814   1.373       .  A
C503        C504   1.362       .  A
C503        H506   1.083       .  S
C504        C505   1.384       .  A
C504        H507   1.069       .  S
C505       N1813   1.382       .  A
C505        C567   1.512       .  S
N508        C512   1.387       .  A
N508        C509   1.373       .  A
N508        C574   1.472       .  S
C509        C510   1.390       .  A
C509        C611   1.494       .  S
C510        C511   1.360       .  A
C510        H513   1.083       .  S
C511        C512   1.373       .  A
C511        H514   1.079       .  S
N515        N516   1.321       .  A
N515        C519   1.355       .  A
N515       Cu523   2.092   1_655  S
N516        C517   1.335       .  A
N516       Cu522   2.061       .  S
C517        C518   1.379       .  A
C517        H520   1.082       .  S
C518        C519   1.391       .  A
C519        H521   1.082   1_655  S
Cu522       N525   2.064   1_655  S
Cu523       N533   2.095       .  S
Cu524       N526   2.079       .  S
Cu524       N532   2.083       .  S
N525        N526   1.318       .  A
N525        C529   1.341       .  A
N526        C527   1.352       .  A
C527        C528   1.389       .  A
C527        H530   1.082       .  S
C528        C529   1.384       .  A
C528        C542   1.478       .  S
C529        H531   1.082       .  S
N532        N533   1.327       .  A
N532        C536   1.342       .  A
N533        C534   1.350       .  A
C534        C535   1.385       .  A
C534        H537   1.082       .  S
C535        C536   1.378       .  A
C535        C591   1.477       .  S
C536        H538   1.082       .  S
N539        N540   1.316       .  A
N539       Cu547   2.086       .  S
N540       Cu546   2.048       .  S
C541        C542   1.380       .  A
C541        H544   1.082       .  S
C542        C543   1.393       .  A
C543        H545   1.082       .  S
Cu546       N549   2.047       .  S
Cu547       N557   2.091       .  S
Cu548       N550   2.106       .  S
Cu548       N556   2.111       .  S
N549        N550   1.320       .  A
N549        C553   1.336       .  A
N550        C551   1.357       .  A
C551        C552   1.396       .  A
C551        H554   1.082       .  S
C552        C553   1.378       .  A
C553        H555   1.081       .  S
N556        N557   1.329       .  A
N556        C560   1.353       .  A
N557        C558   1.341       .  A
C558        C559   1.378       .  A
C558        H561   1.082       .  S
C559        C560   1.388       .  A
C559        C581   1.483       .  S
C560        H562   1.082       .  S
N563        C567   1.381       .  A
N563        C564   1.371       .  A
N563        N570   1.422       .  S
C564        C565   1.375       .  A
C564        C578   1.493       .  S
C565        C566   1.360       .  A
C565        H568   1.083       .  S
C566        C567   1.382       .  A
C566       H1881   1.070       .  S
H569       C1222   1.063       .  S
N570        C574   1.389       .  A
N570        C571   1.371       .  A
C571        C572   1.373       .  A
C571        C588   1.489       .  S
C572        C573   1.361       .  A
C572        H575   1.083       .  S
C573        C574   1.380       .  A
C573        H576   1.061       .  S
C577        C578   1.422       .  A
C577        C582   1.408       .  A
C577       Br584   1.930       .  S
C578        C579   1.411       .  A
C579        C580   1.411       .  A
C579       Br586   1.912       .  S
C580        C581   1.408       .  A
C580       Br585   1.931       .  S
C581        C582   1.406       .  A
C582       Br583   1.932       .  S
C587        C588   1.415       .  A
C587        C592   1.406       .  A
C587       Br594   1.917       .  S
C588        C589   1.414       .  A
C589        C590   1.411       .  A
C589       Br596   1.915       .  S
C590        C591   1.407       .  A
C590       Br595   1.931   1_455  S
C591        C592   1.404       .  A
C592       Br593   1.932       .  S
C597        C598   1.412       .  A
C597        C602   1.410       .  A
C597       Br604   1.934       .  S
C598        C599   1.410       .  A
C599        C600   1.403       .  A
C599       Br606   1.934       .  S
C600        C601   1.416       .  A
C600       Br605   1.930       .  S
C601        C602   1.414       .  A
C602      Br1259   1.909       .  S
Br603      C1914   1.909   1_455  S
C607        C608   1.417       .  A
C607        C612   1.410       .  A
C607       Br614   1.931       .  S
C608        C609   1.417       .  A
C609        C610   1.410       .  A
C609       Br616   1.934       .  S
C610        C611   1.414       .  A
C610       Br615   1.921       .  S
C611        C612   1.409       .  A
C612       Br613   1.909       .  S
C617        C618   1.411       .  A
C617        C622   1.407       .  A
C617       Br624   1.938       .  S
C618        C619   1.415       .  A
C619        C620   1.416       .  A
C619       Br626   1.934       .  S
C620        C621   1.416       .  A
C620       Br625   1.918       .  S
C621        C622   1.425       .  A
C622       Br623   1.943       .  S
C627       C1284   1.417       .  A
C627        C632   1.413       .  A
C627       Br634   1.935       .  S
C628       C1939   1.418       .  A
C628        C629   1.417       .  A
C629        C630   1.409       .  A
C629       Br636   1.936       .  S
C630       C1943   1.415       .  A
C630       Br635   1.923       .  S
C631       C1286   1.412       .  A
C631        C632   1.412       .  A
C632       Br633   1.913       .  S
C637        C638   1.411   1_655  A
C637        C642   1.408       .  A
C637       Br644   1.891       .  S
C638        C639   1.421       .  A
C639        C640   1.407       .  A
C639       Br646   1.924       .  S
C640        C641   1.405   1_455  A
C640       Br645   1.932       .  S
C641        C642   1.403       .  A
C642       Br643   1.932       .  S
C647       C1960   1.407       .  A
C647        C652   1.411       .  A
C647       Br654   1.931       .  S
C648       C1303   1.408       .  A
C648        C649   1.407       .  A
C649        C650   1.408       .  A
C649       Br656   1.930       .  S
C650       C1307   1.414       .  A
C650       Br655   1.924       .  S
C651       C1962   1.416       .  A
C651        C652   1.414       .  A
C652       Br653   1.919       .  S
N657        N658   1.318       .  A
N657        C661   1.352       .  A
N658        C659   1.337       .  A
C659        C660   1.378       .  A
C659        H662   1.080       .  S
C660        C661   1.392       .  A
C660        C880   1.475       .  S
C661        H663   1.082       .  S
Cu664      N1314   2.061       .  S
Cu664       N667   2.062       .  S
Cu665      N1313   2.075       .  S
Cu665       N675   2.077       .  S
Cu666       N668   2.080       .  S
Cu666       N674   2.082       .  S
N667        N668   1.320       .  A
N667        C671   1.341       .  A
N668        C669   1.350       .  A
C669        C670   1.387       .  A
C669        H672   1.082       .  S
C670        C671   1.381       .  A
C670       C1022   1.472       .  S
C671        H673   1.082       .  S
N674        N675   1.325       .  A
N674        C678   1.342       .  A
N675        C676   1.348       .  A
C676        C677   1.381       .  A
C676        H679   1.082       .  S
C677        C678   1.380       .  A
C677        C976   1.473       .  S
C678        H680   1.082       .  S
N681        N682   1.321       .  A
N681        C685   1.356       .  A
N681       Cu689   2.096       .  S
N682        C683   1.334       .  A
N682       Cu688   2.052       .  S
C683        C684   1.378       .  A
C683        H686   1.081       .  S
C684        C685   1.393       .  A
C684        C846   1.478       .  S
C685        H687   1.082       .  S
Cu688       N691   2.053       .  S
Cu689       N699   2.099       .  S
Cu690       N692   2.071       .  S
Cu690       N698   2.074       .  S
N691        N692   1.317       .  A
C693       N1348   1.351       .  A
C693        C694   1.388       .  A
C693        H696   1.082       .  S
C694        C695   1.379       .  A
C694        C998   1.470       .  S
C695       N1347   1.340       .  A
C695       H1353   1.082       .  S
N698        N699   1.327       .  A
N698        C702   1.339       .  A
N699        C700   1.350       .  A
C700        C701   1.385       .  A
C700        H703   1.082       .  S
C701        C702   1.376       .  A
C701        C969   1.475       .  S
C702        H704   1.082       .  S
N705        C709   1.391       .  A
N705        C706   1.372       .  A
N705        N712   1.424       .  S
C706        C979   1.492       .  S
C707       C1362   1.373       .  A
C707        C708   1.360       .  A
C707        H710   1.083       .  S
C708       C1365   1.381       .  A
C708        H711   1.062       .  S
N712        C716   1.388       .  A
N712        C713   1.373       .  A
C713        C714   1.379       .  A
C713        C966   1.501       .  S
C714        C715   1.364       .  A
C714        H717   1.082       .  S
C715        C716   1.374       .  A
C715        H718   1.072       .  S
C716        C778   1.509       .  S
N719        N720   1.321       .  A
N719       Cu727   2.083       .  S
N720        C721   1.343       .  A
N720       Cu726   2.070       .  S
C721        H724   1.082       .  S
C722       C1377   1.382       .  A
C722        C723   1.382       .  A
C722        C808   1.463   1_565  S
C723       N1375   1.346       .  A
C723        H725   1.082       .  S
Cu726       N729   2.069       .  S
Cu727       N737   2.083       .  S
Cu728       N730   2.098       .  S
Cu728       N736   2.099       .  S
N729        N730   1.321       .  A
N729        C733   1.340       .  A
N730        C731   1.355       .  A
C731        C732   1.392       .  A
C731        H734   1.082       .  S
C732        C733   1.383       .  A
C732        C756   1.483       .  S
C733        H735   1.081       .  S
N736        N737   1.323       .  A
N736        C740   1.347       .  A
N737        C738   1.345       .  A
C738        C739   1.389       .  A
C738        H741   1.081       .  S
C739        C740   1.393       .  A
C739        C956   1.501       .  S
C740        H742   1.081       .  S
N743        N744   1.321       .  A
N743        C747   1.349       .  A
N743       Cu751   2.075       .  S
N744        C745   1.342       .  A
N744       Cu750   2.067       .  S
C745        C746   1.381       .  A
C745        H748   1.082   1_565  S
C746        C747   1.383       .  A
C746        C784   1.468   1_565  S
C747        H749   1.082       .  S
Cu750      N1409   2.065       .  S
Cu751       N761   2.077       .  S
Cu752      N1410   2.097       .  S
Cu752       N760   2.097       .  S
N753        N754   1.321       .  A
N753       C1085   1.340       .  A
N754       C1083   1.354       .  A
C755       N1082   1.355   1_554  A
C755        C756   1.392       .  A
C755        H758   1.082       .  S
C756        C757   1.382       .  A
C757       N1081   1.340   1_554  A
C757        H759   1.081       .  S
N760        N761   1.323       .  A
N760        C764   1.346       .  A
N761        C762   1.346       .  A
C762        C763   1.387       .  A
C762        H765   1.081       .  S
C763        C764   1.391       .  A
C763        C946   1.498       .  S
C764        H766   1.081       .  S
N767        C771   1.382       .  A
N767        C768   1.371       .  A
N767       C1365   1.458       .  S
C768        C769   1.388       .  A
C768        C959   1.502       .  S
C769        C770   1.367       .  A
C769        H772   1.083       .  S
C770        C771   1.371       .  A
C770        H773   1.073       .  S
C771        N774   1.466       .  S
N774        C778   1.389       .  A
N774        C775   1.381       .  A
C775        C776   1.377       .  A
C775        C949   1.507       .  S
C776        C777   1.355       .  A
C776        H779   1.083       .  S
C777        C778   1.377       .  A
C777        H780   1.068       .  S
N781        N782   1.321       .  A
N781        C785   1.350       .  A
N781       Cu789   2.090       .  S
N782        C783   1.340       .  A
N782       Cu788   2.055       .  S
C783        C784   1.379       .  A
C783        H786   1.082       .  S
C784        C785   1.388       .  A
C785        H787   1.082       .  S
Cu788       N791   2.056       .  S
Cu789       N799   2.091       .  S
Cu790       N792   2.063       .  S
Cu790       N798   2.062       .  S
N791        N792   1.321       .  A
N791        C795   1.341       .  A
N792        C793   1.344       .  A
C793       C1122   1.383       .  A
C793        H796   1.082       .  S
C794       C1121   1.383       .  A
C794       C1123   1.381       .  A
C794        C818   1.464       .  S
C795       C1122   1.381       .  A
C795        H797   1.082       .  S
N798        N799   1.321       .  A
N798        C802   1.341       .  A
N799        C800   1.347       .  A
C800        C801   1.394       .  A
C800        H803   1.081       .  S
C801        C802   1.385       .  A
C801        C936   1.495       .  S
C802        H804   1.081       .  S
N805        N806   1.322       .  A
N805        C809   1.349       .  A
N805       Cu813   2.084       .  S
N806        C807   1.341       .  A
N806       Cu812   2.055       .  S
C807        C808   1.377       .  A
C807        H810   1.082       .  S
C808        C809   1.385       .  A
C809        H811   1.082       .  S
Cu812       N815   2.054       .  S
Cu813       N823   2.084       .  S
Cu814       N816   2.059       .  S
Cu814       N822   2.058       .  S
N815        N816   1.320       .  A
N815        C819   1.340       .  A
N816        C817   1.344       .  A
C817        C818   1.383       .  A
C817        H820   1.082       .  S
C818        C819   1.381       .  A
C819        H821   1.082       .  S
N822        N823   1.322       .  A
N822        C826   1.339       .  A
N823        C824   1.348       .  A
C824        C825   1.390       .  A
C824        H827   1.081       .  S
C825        C826   1.381       .  A
C825        C926   1.485       .  S
C826        H828   1.082       .  S
N829       C1489   1.383       .  A
N829        C830   1.372       .  A
N829        C840   1.462       .  S
C830       C1487   1.372       .  A
C830        C929   1.483       .  S
C831        C832   1.363       .  A
C831        H834   1.083       .  S
C832        C833   1.384       .  A
C832        H835   1.071       .  S
C833        C895   1.513       .  S
N836        C840   1.387       .  A
N836        C837   1.375       .  A
N836        C902   1.475       .  S
C837        C838   1.390       .  A
C837        C939   1.500       .  S
C838        C839   1.361       .  A
C838        H841   1.083       .  S
C839        C840   1.371       .  A
C839        H842   1.078       .  S
N843        N844   1.322       .  A
N843        C847   1.355       .  A
N843       Cu851   2.098       .  S
N844        C845   1.336       .  A
N844       Cu850   2.061       .  S
C845        C846   1.380       .  A
C845        H848   1.082       .  S
C846        C847   1.392       .  A
C847        H849   1.082       .  S
Cu850       N853   2.064       .  S
Cu851       N861   2.101       .  S
Cu852       N854   2.082       .  S
Cu852       N860   2.086       .  S
N853        N854   1.318       .  A
N853        C857   1.341       .  A
N854        C855   1.352       .  A
C855        C856   1.389       .  A
C855        H858   1.082       .  S
C856        C857   1.384       .  A
C856        C870   1.479       .  S
C857        H859   1.082       .  S
N860        N861   1.327       .  A
N860        C864   1.342       .  A
N861        C862   1.352       .  A
C862        C863   1.387       .  A
C862        H865   1.082       .  S
C863        C864   1.381       .  A
C863        C919   1.484       .  S
C864        H866   1.082       .  S
N867        N868   1.321       .  A
N867       C1199   1.352       .  A
N867       Cu875   2.092       .  S
N868       C1197   1.340       .  A
N868       Cu874   2.064       .  S
C869       N1196   1.340   1_554  A
C869        C870   1.381       .  A
C869        H872   1.082       .  S
C870        C871   1.391       .  A
C871       N1195   1.353   1_554  A
C871        H873   1.082       .  S
Cu874       N877   2.063       .  S
Cu875       N885   2.095       .  S
Cu876       N878   2.083       .  S
Cu876       N884   2.086       .  S
N877        N878   1.321       .  A
N877        C881   1.340       .  A
N878        C879   1.350       .  A
C879        C880   1.387       .  A
C879        H882   1.082       .  S
C880        C881   1.383       .  A
C881        H883   1.082       .  S
N884        N885   1.325       .  A
N884        C888   1.347       .  A
N885        C886   1.346       .  A
C886        C887   1.386       .  A
C886        H889   1.082       .  S
C887        C888   1.386       .  A
C887        C909   1.487       .  S
C888        H890   1.082       .  S
N891        C895   1.383       .  A
N891        C892   1.372       .  A
N891        N898   1.424       .  S
C892        C893   1.375       .  A
C892        C906   1.492       .  S
C893        C894   1.358       .  A
C893        H896   1.083       .  S
C894        C895   1.381       .  A
H897       C1550   1.070       .  S
N898        C902   1.391       .  A
N898        C899   1.373       .  A
C899        C900   1.370       .  A
C899        C916   1.489       .  S
C900        C901   1.358       .  A
C900        H903   1.083       .  S
C901        C902   1.386       .  A
C901        H904   1.066       .  S
C905        C906   1.417       .  A
C905        C910   1.404       .  A
C905       Br912   1.915       .  S
C906        C907   1.410       .  A
C907        C908   1.415       .  A
C907       Br914   1.917       .  S
C908        C909   1.412       .  A
C908       Br913   1.928       .  S
C909        C910   1.408       .  A
C910       Br911   1.938       .  S
C915        C916   1.418       .  A
C915        C920   1.411       .  A
C915       Br922   1.928       .  S
C916        C917   1.415       .  A
C917        C918   1.409       .  A
C917       Br924   1.914       .  S
C918        C919   1.407       .  A
C918       Br923   1.934       .  S
C919        C920   1.408       .  A
C920       Br921   1.929       .  S
C925        C926   1.411       .  A
C925        C930   1.407       .  A
C925       Br932   1.933       .  S
C926        C927   1.413       .  A
C927        C928   1.407       .  A
C927       Br934   1.934       .  S
C928        C929   1.414       .  A
C928       Br933   1.926       .  S
C929        C930   1.411       .  A
C930      Br1587   1.910       .  S
C935        C936   1.412       .  A
C935        C940   1.406       .  A
C935       Br942   1.936       .  S
C936        C937   1.416       .  A
C937        C938   1.411       .  A
C937       Br944   1.933       .  S
C938        C939   1.417       .  A
C938       Br943   1.922       .  S
C939        C940   1.411       .  A
C940       Br941   1.902       .  S
C945        C946   1.411       .  A
C945        C950   1.406       .  A
C945       Br952   1.938       .  S
C946        C947   1.415       .  A
C947        C948   1.418       .  A
C947       Br954   1.934       .  S
C948        C949   1.419       .  A
C948       Br953   1.915       .  S
C949        C950   1.423       .  A
C950       Br951   1.940       .  S
C955       C1612   1.417       .  A
C955        C960   1.413       .  A
C955       Br962   1.937       .  S
C956        C957   1.416       .  A
C957        C958   1.410       .  A
C957       Br964   1.934       .  S
C958       Br963   1.918       .  S
C959       C1614   1.417       .  A
C959        C960   1.414       .  A
C960       Br961   1.917       .  S
C965        C966   1.413       .  A
C965        C970   1.408       .  A
C965       Br972   1.895       .  S
C966        C967   1.423       .  A
C967        C968   1.408       .  A
C967       Br974   1.925       .  S
C968        C969   1.404       .  A
C968       Br973   1.933       .  S
C969        C970   1.402       .  A
C970       Br971   1.933       .  S
C975        C980   1.415       .  A
C975       Br982   1.929       .  S
C976       C1631   1.408       .  A
C976        C977   1.404       .  A
C977        C978   1.405       .  A
C977       Br984   1.930       .  S
C978       C1635   1.413       .  A
C978       Br983   1.922       .  S
C979        C980   1.413       .  A
C980       Br981   1.922       .  S
N985        N986   1.322       .  A
N985        C989   1.348       .  A
N986        C987   1.339       .  A
C987        C988   1.377       .  A
C987        H990   1.082       .  S
C988        C989   1.384       .  A
C988       C1208   1.463       .  S
C989        H991   1.082       .  S
Cu992      N1642   2.063       .  S
Cu992       N995   2.063       .  S
Cu993      N1641   2.087       .  S
Cu993      N1003   2.089       .  S
Cu994       N996   2.079       .  S
Cu994      N1002   2.081       .  S
N995        N996   1.320       .  A
N995        C999   1.342   1_556  A
N996        C997   1.350   1_556  A
C997        C998   1.386       .  A
C997       H1000   1.082       .  S
C998        C999   1.381       .  A
C999       H1001   1.082       .  S
N1002      N1003   1.325       .  A
N1002      C1006   1.342       .  A
N1003      C1004   1.351       .  A
C1004      C1005   1.384       .  A
C1004      H1007   1.082       .  S
C1005      C1006   1.380       .  A
C1005      C1304   1.478       .  S
C1006      H1008   1.082       .  S
N1009      N1010   1.322       .  A
N1009      C1013   1.354       .  A
N1009     Cu1017   2.100       .  S
N1010      C1011   1.340       .  A
N1010     Cu1016   2.070       .  S
C1011      C1012   1.383       .  A
C1011      H1014   1.082       .  S
C1012      C1013   1.391       .  A
C1012      C1174   1.483       .  S
C1013      H1015   1.082       .  S
Cu1016     N1019   2.069       .  S
Cu1017     N1027   2.102       .  S
Cu1018     N1020   2.068       .  S
Cu1018     N1026   2.071       .  S
N1019      N1020   1.319       .  A
C1021      N1676   1.350       .  A
C1021      C1022   1.388       .  A
C1021      H1024   1.082       .  S
C1022      C1023   1.381       .  A
C1023      N1675   1.340       .  A
C1023      H1681   1.082       .  S
N1026      N1027   1.326       .  A
N1026      C1030   1.341       .  A
N1027      C1028   1.351       .  A
C1028      C1029   1.388       .  A
C1028      H1031   1.082       .  S
C1029      C1030   1.379       .  A
C1029      C1297   1.482       .  S
C1030      H1032   1.082       .  S
N1033      C1037   1.388       .  A
N1033      C1034   1.368       .  A
N1033      N1040   1.427       .  S
C1034      C1307   1.479       .  S
C1035      C1690   1.373       .  A
C1035      C1036   1.361       .  A
C1035      H1038   1.083       .  S
C1036      C1693   1.382       .  A
C1036      H1039   1.062       .  S
N1040      C1044   1.389       .  A
N1040      C1041   1.377       .  A
C1041      C1042   1.378       .  A
C1041      C1294   1.503       .  S
C1042      C1043   1.360       .  A
C1042      H1045   1.082       .  S
C1043      C1044   1.372       .  A
C1043      H1046   1.073       .  S
C1044      C1106   1.508       .  S
N1047      N1048   1.321       .  A
N1047     Cu1055   2.070       .  S
N1048      C1049   1.343       .  A
N1048     Cu1054   2.072       .  S
C1049      H1052   1.082       .  S
C1050      C1705   1.381       .  A
C1050      C1051   1.384       .  A
C1050      C1136   1.465   1_565  S
C1051      N1703   1.348       .  A
C1051      H1053   1.082       .  S
Cu1054     N1057   2.071       .  S
Cu1055     N1065   2.069       .  S
Cu1056     N1058   2.089       .  S
Cu1056     N1064   2.090       .  S
N1057      N1058   1.321       .  A
N1057      C1061   1.341       .  A
N1058      C1059   1.353       .  A
C1059      C1060   1.390       .  A
C1059      H1062   1.082       .  S
C1060      C1061   1.384       .  A
C1060      C1084   1.481       .  S
C1061      H1063   1.081       .  S
N1064      N1065   1.322       .  A
N1064      C1068   1.345       .  A
N1065      C1066   1.343       .  A
C1066      C1067   1.386       .  A
C1066      H1069   1.081       .  S
C1067      C1068   1.390       .  A
C1067      C1284   1.493       .  S
C1068      H1070   1.081       .  S
N1071      N1072   1.321       .  A
N1071      C1075   1.350       .  A
N1071     Cu1079   2.076       .  S
N1072      C1073   1.341       .  A
N1072     Cu1078   2.069       .  S
C1073      C1074   1.381       .  A
C1073      H1076   1.082   1_565  S
C1074      C1075   1.385       .  A
C1074      C1112   1.469   1_565  S
C1075      H1077   1.082       .  S
Cu1078     N1737   2.068       .  S
Cu1079     N1089   2.078       .  S
Cu1080     N1738   2.100       .  S
Cu1080     N1088   2.100       .  S
N1081      N1082   1.322       .  A
C1083      C1084   1.392       .  A
C1083      H1086   1.082       .  S
C1084      C1085   1.382       .  A
C1085      H1087   1.081       .  S
N1088      N1089   1.323       .  A
N1088      C1092   1.347       .  A
N1089      C1090   1.345       .  A
C1090      C1091   1.387       .  A
C1090      H1093   1.081       .  S
C1091      C1092   1.392       .  A
C1091      C1274   1.499       .  S
C1092      H1094   1.081       .  S
N1095      C1099   1.385       .  A
N1095      C1096   1.374       .  A
N1095      C1693   1.464       .  S
C1096      C1097   1.388       .  A
C1096      C1287   1.504       .  S
C1097      C1098   1.365       .  A
C1097      H1100   1.083       .  S
C1098      C1099   1.371       .  A
C1098      H1101   1.075       .  S
C1099      N1102   1.466       .  S
N1102      C1106   1.388       .  A
N1102      C1103   1.380       .  A
C1103      C1104   1.378       .  A
C1103      C1277   1.507       .  S
C1104      C1105   1.358       .  A
C1104      H1107   1.083       .  S
C1105      C1106   1.376       .  A
C1105      H1108   1.067       .  S
N1109      N1110   1.321       .  A
N1109      C1113   1.351       .  A
N1109     Cu1117   2.094       .  S
N1110      C1111   1.340       .  A
N1110     Cu1116   2.055       .  S
C1111      C1112   1.379       .  A
C1111      H1114   1.082       .  S
C1112      C1113   1.389       .  A
C1113      H1115   1.082       .  S
Cu1116     N1119   2.056       .  S
Cu1117     N1127   2.095       .  S
Cu1118     N1120   2.063       .  S
Cu1118     N1126   2.062       .  S
N1119      N1120   1.320       .  A
N1119      C1123   1.340   1_556  A
N1120      C1121   1.345   1_556  A
C1121      H1124   1.082       .  S
C1122      C1146   1.464       .  S
C1123      H1125   1.082       .  S
N1126      N1127   1.321       .  A
N1126      C1130   1.341       .  A
N1127      C1128   1.347       .  A
C1128      C1129   1.395       .  A
C1128      H1131   1.081       .  S
C1129      C1130   1.384       .  A
C1129      C1264   1.496       .  S
C1130      H1132   1.081       .  S
N1133      N1134   1.322       .  A
N1133      C1137   1.350       .  A
N1133     Cu1141   2.086       .  S
N1134      C1135   1.341       .  A
N1134     Cu1140   2.056       .  S
C1135      C1136   1.377       .  A
C1135      H1138   1.082       .  S
C1136      C1137   1.386       .  A
C1137      H1139   1.082       .  S
Cu1140     N1143   2.056       .  S
Cu1141     N1151   2.087       .  S
Cu1142     N1144   2.059       .  S
Cu1142     N1150   2.058       .  S
N1143      N1144   1.320       .  A
N1143      C1147   1.340       .  A
N1144      C1145   1.344       .  A
C1145      C1146   1.383       .  A
C1145      H1148   1.082       .  S
C1146      C1147   1.381       .  A
C1147      H1149   1.082       .  S
N1150      N1151   1.322       .  A
N1150      C1154   1.339       .  A
N1151      C1152   1.348       .  A
C1152      C1153   1.391       .  A
C1152      H1155   1.081       .  S
C1153      C1154   1.382       .  A
C1153      C1254   1.487       .  S
C1154      H1156   1.082       .  S
N1157      C1817   1.385       .  A
N1157      C1158   1.372       .  A
N1157      C1168   1.461       .  S
C1158      C1815   1.372       .  A
C1158      C1257   1.485       .  S
C1159      C1160   1.362       .  A
C1159      H1162   1.083       .  S
C1160      C1161   1.384       .  A
C1160      H1163   1.071       .  S
C1161      C1223   1.511       .  S
N1164      C1168   1.389       .  A
N1164      C1165   1.378       .  A
N1164      C1230   1.479       .  S
C1165      C1166   1.390       .  A
C1165      C1267   1.498       .  S
C1166      C1167   1.359       .  A
C1166      H1169   1.083       .  S
C1167      C1168   1.372       .  A
C1167      H1170   1.080       .  S
N1171      N1172   1.322       .  A
N1171      C1175   1.356       .  A
N1171     Cu1179   2.111       .  S
N1172      C1173   1.339       .  A
N1172     Cu1178   2.057       .  S
C1173      C1174   1.380       .  A
C1173      H1176   1.082       .  S
C1174      C1175   1.395       .  A
C1175      H1177   1.082       .  S
Cu1178     N1181   2.058       .  S
Cu1179     N1189   2.113       .  S
Cu1180     N1182   2.087       .  S
Cu1180     N1188   2.091       .  S
N1181      N1182   1.319       .  A
N1181      C1185   1.340       .  A
N1182      C1183   1.352       .  A
C1183      C1184   1.391       .  A
C1183      H1186   1.082       .  S
C1184      C1185   1.382       .  A
C1184      C1198   1.479       .  S
C1185      H1187   1.082       .  S
N1188      N1189   1.327       .  A
N1188      C1192   1.343       .  A
N1189      C1190   1.354       .  A
C1190      C1191   1.390       .  A
C1190      H1193   1.082       .  S
C1191      C1192   1.381       .  A
C1191      C1247   1.489       .  S
C1192      H1194   1.082       .  S
N1195      N1196   1.321       .  A
N1195     Cu1203   2.098       .  S
N1196     Cu1202   2.058       .  S
C1197      C1198   1.382       .  A
C1197      H1200   1.082       .  S
C1198      C1199   1.390       .  A
C1199      H1201   1.082       .  S
Cu1202     N1205   2.058       .  S
Cu1203     N1213   2.100       .  S
Cu1204     N1206   2.066       .  S
Cu1204     N1212   2.068       .  S
N1205      N1206   1.321       .  A
N1205      C1209   1.340       .  A
N1206      C1207   1.347       .  A
C1207      C1208   1.382       .  A
C1207      H1210   1.082       .  S
C1208      C1209   1.380       .  A
C1209      H1211   1.082       .  S
N1212      N1213   1.325       .  A
N1212      C1216   1.345       .  A
N1213      C1214   1.345       .  A
C1214      C1215   1.386       .  A
C1214      H1217   1.082       .  S
C1215      C1216   1.381       .  A
C1215      C1237   1.476       .  S
C1216      H1218   1.082       .  S
N1219      C1223   1.381       .  A
N1219      C1220   1.369       .  A
N1219      N1226   1.422       .  S
C1220      C1221   1.374       .  A
C1220      C1234   1.486       .  S
C1221      C1222   1.356       .  A
C1221      H1224   1.083       .  S
C1222      C1223   1.381       .  A
H1225      C1878   1.066       .  S
N1226      C1230   1.393       .  A
N1226      C1227   1.375       .  A
C1227      C1228   1.370       .  A
C1227      C1244   1.496       .  S
C1228      C1229   1.360       .  A
C1228      H1231   1.083       .  S
C1229      C1230   1.386       .  A
C1229      H1232   1.066       .  S
C1233      C1234   1.419       .  A
C1233      C1238   1.401       .  A
C1233     Br1240   1.919       .  S
C1234      C1235   1.409       .  A
C1235      C1236   1.412       .  A
C1235     Br1242   1.913       .  S
C1236      C1237   1.407       .  A
C1236     Br1241   1.927       .  S
C1237      C1238   1.404       .  A
C1238     Br1239   1.936       .  S
C1243      C1244   1.419       .  A
C1243      C1248   1.412       .  A
C1243     Br1250   1.922       .  S
C1244      C1245   1.416       .  A
C1245      C1246   1.412       .  A
C1245     Br1252   1.915       .  S
C1246      C1247   1.408       .  A
C1246     Br1251   1.932       .  S
C1247      C1248   1.406       .  A
C1248     Br1249   1.929       .  S
C1253      C1254   1.412       .  A
C1253      C1258   1.408       .  A
C1253     Br1260   1.934       .  S
C1254      C1255   1.413       .  A
C1255      C1256   1.407       .  A
C1255     Br1262   1.933       .  S
C1256      C1257   1.414       .  A
C1256     Br1261   1.926       .  S
C1257      C1258   1.412       .  A
C1258     Br1915   1.911       .  S
C1263      C1264   1.412       .  A
C1263      C1268   1.407       .  A
C1263     Br1270   1.936       .  S
C1264      C1265   1.417       .  A
C1265      C1266   1.411       .  A
C1265     Br1272   1.933       .  S
C1266      C1267   1.417       .  A
C1266     Br1271   1.922       .  S
C1267      C1268   1.411       .  A
C1268     Br1269   1.900       .  S
C1273      C1274   1.413       .  A
C1273      C1278   1.408       .  A
C1273     Br1280   1.937       .  S
C1274      C1275   1.415       .  A
C1275      C1276   1.417       .  A
C1275     Br1282   1.935       .  S
C1276      C1277   1.417       .  A
C1276     Br1281   1.915       .  S
C1277      C1278   1.423       .  A
C1278     Br1279   1.940       .  S
C1283      C1940   1.416       .  A
C1283      C1288   1.413       .  A
C1283     Br1290   1.937       .  S
C1284      C1285   1.413       .  A
C1285      C1286   1.406       .  A
C1285     Br1292   1.934       .  S
C1286     Br1291   1.916       .  S
C1287      C1942   1.421       .  A
C1287      C1288   1.414       .  A
C1288     Br1289   1.917       .  S
C1293      C1294   1.412       .  A
C1293      C1298   1.409       .  A
C1293     Br1300   1.900       .  S
C1294      C1295   1.424       .  A
C1295      C1296   1.411       .  A
C1295     Br1302   1.930       .  S
C1296      C1297   1.406       .  A
C1296     Br1301   1.932       .  S
C1297      C1298   1.405       .  A
C1298     Br1299   1.934       .  S
C1303      C1308   1.408       .  A
C1303     Br1310   1.930       .  S
C1304      C1959   1.408       .  A
C1304      C1305   1.405       .  A
C1305      C1306   1.408       .  A
C1305     Br1312   1.930       .  S
C1306      C1963   1.416       .  A
C1306     Br1311   1.925       .  S
C1307      C1308   1.409       .  A
C1308     Br1309   1.922       .  S
N1313      N1314   1.321       .  A
N1313      C1317   1.350       .  A
N1314      C1315   1.338       .  A
C1315      C1316   1.381       .  A
C1315      H1318   1.082       .  S
C1316      C1317   1.386       .  A
C1316      C1536   1.470       .  S
C1317      H1319   1.082       .  S
Cu1320     N1323   2.056       .  S
Cu1321     N1331   2.074       .  S
Cu1322     N1324   2.085       .  S
Cu1322     N1330   2.089       .  S
N1323      N1324   1.319       .  A
N1323      C1327   1.338       .  A
N1324      C1325   1.352       .  A
C1325      C1326   1.389       .  A
C1325      H1328   1.082       .  S
C1326      C1327   1.380       .  A
C1326      C1678   1.473       .  S
C1327      H1329   1.082       .  S
N1330      N1331   1.327       .  A
N1330      C1334   1.342       .  A
N1331      C1332   1.348       .  A
C1332      C1333   1.379       .  A
C1332      H1335   1.082       .  S
C1333      C1334   1.380       .  A
C1333      C1632   1.472       .  S
C1334      H1336   1.082       .  S
N1337      N1338   1.320       .  A
N1337      C1341   1.357       .  A
N1337     Cu1345   2.096       .  S
N1338      C1339   1.334       .  A
N1338     Cu1344   2.049       .  S
C1339      C1340   1.378       .  A
C1339      H1342   1.082       .  S
C1340      C1341   1.394       .  A
C1340      C1502   1.478       .  S
C1341      H1343   1.082       .  S
Cu1344     N1347   2.050       .  S
Cu1345     N1355   2.099       .  S
Cu1346     N1348   2.079       .  S
Cu1346     N1354   2.083       .  S
N1347      N1348   1.318       .  A
C1349      C1350   1.392       .  A
C1349      H1352   1.082       .  S
C1350      C1351   1.381       .  A
C1350      C1654   1.478       .  S
N1354      N1355   1.328       .  A
N1354      C1358   1.342       .  A
N1355      C1356   1.349       .  A
C1356      C1357   1.384       .  A
C1356      H1359   1.082       .  S
C1357      C1358   1.378       .  A
C1357      C1625   1.477       .  S
C1358      H1360   1.082       .  S
N1361      C1365   1.383       .  A
N1361      C1362   1.365       .  A
N1361      N1368   1.424       .  S
C1362      C1635   1.477       .  S
C1363      C1364   1.361   1_455  A
C1363      H1366   1.083       .  S
C1364      H1367   1.061       .  S
N1368      C1372   1.388       .  A
N1368      C1369   1.373       .  A
C1369      C1370   1.377       .  A
C1369      C1622   1.497       .  S
C1370      C1371   1.361       .  A
C1370      H1373   1.083       .  S
C1371      C1372   1.373       .  A
C1371      H1374   1.062       .  S
C1372      C1434   1.516       .  S
N1375      N1376   1.321       .  A
N1375     Cu1383   2.067       .  S
N1376      C1377   1.343       .  A
N1376     Cu1382   2.070       .  S
C1377      H1380   1.082       .  S
C1378      C1379   1.383   1_455  A
C1378      C1464   1.462   1_465  S
C1379      H1381   1.082       .  S
Cu1382     N1385   2.069       .  S
Cu1383     N1393   2.066       .  S
Cu1384     N1386   2.098       .  S
Cu1384     N1392   2.099       .  S
N1385      N1386   1.321       .  A
N1385      C1389   1.341       .  A
N1386      C1387   1.354       .  A
C1387      C1388   1.392       .  A
C1387      H1390   1.082       .  S
C1388      C1389   1.383       .  A
C1388      C1412   1.483       .  S
C1389      H1391   1.082       .  S
N1392      N1393   1.322       .  A
N1392      C1396   1.346       .  A
N1393      C1394   1.343       .  A
C1394      C1395   1.384       .  A
C1394      H1397   1.082       .  S
C1395      C1396   1.392       .  A
C1395      C1612   1.493       .  S
C1396      H1398   1.081       .  S
N1399      N1400   1.321       .  A
N1399      C1403   1.350       .  A
N1399     Cu1407   2.074       .  S
N1400      C1401   1.340       .  A
N1400     Cu1406   2.064   1_655  S
C1401      C1402   1.380       .  A
C1401      H1404   1.082       .  S
C1402      C1403   1.384       .  A
C1402      C1440   1.467   1_565  S
C1403      H1405   1.082       .  S
Cu1407     N1417   2.076       .  S
Cu1408     N1416   2.086       .  S
N1409      N1410   1.321       .  A
N1409      C1741   1.340       .  A
N1410      C1739   1.354       .  A
C1411      N1738   1.354   1_554  A
C1411      C1412   1.391       .  A
C1411      H1414   1.082       .  S
C1412      C1413   1.383       .  A
C1413      N1737   1.341   1_554  A
C1413      H1415   1.082       .  S
N1416      N1417   1.324   1_455  A
N1416      C1420   1.343       .  A
N1417      C1418   1.345       .  A
C1418      C1419   1.386       .  A
C1418      H1421   1.082       .  S
C1419      C1420   1.387   1_655  A
C1419      C1602   1.490       .  S
C1420      H1422   1.082       .  S
N1423      C1427   1.387       .  A
N1423      C1424   1.372       .  A
C1424      C1425   1.389       .  A
C1424      C1615   1.502   1_655  S
C1425      C1426   1.366       .  A
C1425      H1428   1.083       .  S
C1426      C1427   1.376       .  A
C1426      H1429   1.081       .  S
C1427      N1430   1.467       .  S
N1430      C1434   1.392       .  A
N1430      C1431   1.380       .  A
C1431      C1432   1.373       .  A
C1431      C1605   1.502       .  S
C1432      C1433   1.352       .  A
C1432      H1435   1.083       .  S
C1433      C1434   1.377       .  A
C1433      H1436   1.063       .  S
N1437      N1438   1.320       .  A
N1437      C1441   1.350       .  A
N1437     Cu1445   2.089       .  S
N1438      C1439   1.339       .  A
N1438     Cu1444   2.052       .  S
C1439      C1440   1.378       .  A
C1439      H1442   1.082       .  S
C1440      C1441   1.388       .  A
C1441      H1443   1.082       .  S
Cu1444     N1447   2.054       .  S
Cu1445     N1455   2.091       .  S
Cu1446     N1448   2.065       .  S
Cu1446     N1454   2.064       .  S
N1447      N1448   1.320       .  A
N1447      C1451   1.340       .  A
N1448      C1449   1.345       .  A
C1449      C1778   1.383       .  A
C1449      H1452   1.082       .  S
C1450      C1777   1.383       .  A
C1450      C1779   1.380       .  A
C1450      C1474   1.464       .  S
C1451      C1778   1.380       .  A
C1451      H1453   1.082       .  S
N1454      N1455   1.321       .  A
N1454      C1458   1.342       .  A
N1455      C1456   1.346       .  A
C1456      C1457   1.393       .  A
C1456      H1459   1.081       .  S
C1457      C1458   1.385       .  A
C1457      C1592   1.494       .  S
C1458      H1460   1.081       .  S
N1461      N1462   1.322       .  A
N1461      C1465   1.350       .  A
N1461     Cu1469   2.086       .  S
N1462      C1463   1.339       .  A
N1462     Cu1468   2.052       .  S
C1463      C1464   1.375       .  A
C1463      H1466   1.082       .  S
C1464      C1465   1.386       .  A
C1465      H1467   1.082   1_655  S
Cu1468     N1471   2.052       .  S
Cu1469     N1479   2.087       .  S
Cu1470     N1472   2.060       .  S
Cu1470     N1478   2.060       .  S
N1471      N1472   1.319       .  A
N1471      C1475   1.341       .  A
N1472      C1473   1.344       .  A
C1473      C1474   1.383       .  A
C1473      H1476   1.082       .  S
C1474      C1475   1.381       .  A
C1475      H1477   1.082       .  S
N1478      N1479   1.322       .  A
N1478      C1482   1.339       .  A
N1479      C1480   1.348       .  A
C1480      C1481   1.392       .  A
C1480      H1483   1.081       .  S
C1481      C1482   1.382       .  A
C1481      C1582   1.489       .  S
C1482      H1484   1.082       .  S
N1485      C1486   1.374       .  A
N1485      C1496   1.461   1_455  S
C1486      C1585   1.489   1_455  S
C1487      C1488   1.360       .  A
C1487      H1490   1.083       .  S
C1488      C1489   1.384       .  A
C1488      H1491   1.070       .  S
C1489      C1551   1.509       .  S
N1492      C1496   1.387       .  A
N1492      C1493   1.373       .  A
N1492      C1558   1.475       .  S
C1493      C1494   1.391       .  A
C1493      C1595   1.494       .  S
C1494      C1495   1.360       .  A
C1494      H1497   1.083       .  S
C1495      C1496   1.372       .  A
C1495      H1498   1.079   1_655  S
N1499      N1500   1.321       .  A
N1499      C1503   1.357       .  A
N1499     Cu1507   2.101       .  S
N1500      C1501   1.335       .  A
N1500     Cu1506   2.059       .  S
C1501      C1502   1.379       .  A
C1501      H1504   1.082       .  S
C1502      C1503   1.393       .  A
C1503      H1505   1.082       .  S
Cu1506     N1509   2.061       .  S
Cu1507     N1517   2.105       .  S
Cu1508     N1510   2.079       .  S
Cu1508     N1516   2.083       .  S
N1509      N1510   1.318       .  A
N1509      C1513   1.339       .  A
N1510      C1511   1.352       .  A
C1511      C1512   1.389       .  A
C1511      H1514   1.082       .  S
C1512      C1513   1.383       .  A
C1512      C1526   1.476       .  S
C1513      H1515   1.082       .  S
N1516      N1517   1.328       .  A
N1516      C1520   1.341       .  A
N1517      C1518   1.352       .  A
C1518      C1519   1.387       .  A
C1518      H1521   1.082       .  S
C1519      C1520   1.378       .  A
C1519      C1575   1.480       .  S
C1520      H1522   1.082       .  S
N1523      N1524   1.318       .  A
N1523      C1855   1.355       .  A
N1523     Cu1531   2.097       .  S
N1524      C1853   1.337       .  A
N1524     Cu1530   2.042       .  S
C1525      N1852   1.337   1_554  A
C1525      C1526   1.378       .  A
C1525      H1528   1.082       .  S
C1526      C1527   1.394       .  A
C1527      N1851   1.355   1_554  A
C1527      H1529   1.082       .  S
Cu1530     N1533   2.041       .  S
Cu1531     N1541   2.101       .  S
Cu1532     N1534   2.088       .  S
Cu1532     N1540   2.092       .  S
N1533      N1534   1.319       .  A
N1533      C1537   1.335       .  A
N1534      C1535   1.352       .  A
C1535      C1536   1.390       .  A
C1535      H1538   1.082       .  S
C1536      C1537   1.377       .  A
C1537      H1539   1.082       .  S
N1540      N1541   1.329       .  A
N1540      C1544   1.350       .  A
N1541      C1542   1.343       .  A
C1542      C1543   1.381       .  A
C1542      H1545   1.082       .  S
C1543      C1544   1.384       .  A
C1543      C1565   1.479       .  S
C1544      H1546   1.082       .  S
N1547      C1551   1.382       .  A
N1547      C1548   1.369       .  A
N1547      N1554   1.424       .  S
C1548      C1549   1.375       .  A
C1548      C1562   1.488       .  S
C1549      C1550   1.359       .  A
C1549      H1552   1.083       .  S
C1550      C1551   1.384       .  A
N1554      C1558   1.392       .  A
N1554      C1555   1.372       .  A
C1555      C1556   1.371       .  A
C1555      C1572   1.490       .  S
C1556      C1557   1.360       .  A
C1556      H1559   1.083       .  S
C1557      C1558   1.384       .  A
C1557      H1560   1.065       .  S
C1561      C1562   1.421       .  A
C1561      C1566   1.406       .  A
C1561     Br1568   1.931       .  S
C1562      C1563   1.409       .  A
C1563      C1564   1.410       .  A
C1563     Br1570   1.912       .  S
C1564      C1565   1.407       .  A
C1564     Br1569   1.929       .  S
C1565      C1566   1.405       .  A
C1566     Br1567   1.932       .  S
C1571      C1572   1.418       .  A
C1571      C1576   1.408       .  A
C1571     Br1578   1.925       .  S
C1572      C1573   1.415       .  A
C1573      C1574   1.410       .  A
C1573     Br1580   1.914       .  S
C1574      C1575   1.407       .  A
C1574     Br1579   1.932       .  S
C1575      C1576   1.405       .  A
C1576     Br1577   1.930       .  S
C1581      C1582   1.412       .  A
C1581      C1586   1.408       .  A
C1581     Br1588   1.934   1_655  S
C1582      C1583   1.413       .  A
C1583      C1584   1.407       .  A
C1583     Br1590   1.933       .  S
C1584      C1585   1.416       .  A
C1584     Br1589   1.925       .  S
C1585      C1586   1.411       .  A
C1591      C1592   1.413       .  A
C1591      C1596   1.405       .  A
C1591     Br1598   1.934       .  S
C1592      C1593   1.417       .  A
C1593      C1594   1.412       .  A
C1593     Br1600   1.932       .  S
C1594      C1595   1.415       .  A
C1594     Br1599   1.923       .  S
C1595      C1596   1.409       .  A
C1596     Br1597   1.905       .  S
C1601      C1602   1.411       .  A
C1601      C1606   1.404       .  A
C1601     Br1608   1.939       .  S
C1602      C1603   1.412       .  A
C1603      C1604   1.415       .  A
C1603     Br1610   1.935       .  S
C1604      C1605   1.420       .  A
C1604     Br1609   1.914       .  S
C1605      C1606   1.424       .  A
C1606     Br1607   1.941       .  S
C1611      C1616   1.414       .  A
C1611     Br1618   1.937       .  S
C1612      C1613   1.412       .  A
C1613      C1614   1.407       .  A
C1613     Br1620   1.939       .  S
C1614     Br1619   1.917       .  S
C1615      C1616   1.414       .  A
C1616     Br1617   1.916       .  S
C1621      C1622   1.416       .  A
C1621      C1626   1.409       .  A
C1621     Br1628   1.902       .  S
C1622      C1623   1.422       .  A
C1623      C1624   1.408       .  A
C1623     Br1630   1.932       .  S
C1624      C1625   1.405       .  A
C1624     Br1629   1.932       .  S
C1625      C1626   1.402       .  A
C1626     Br1627   1.934       .  S
C1631      C1636   1.408       .  A
C1631     Br1638   1.930       .  S
C1632      C1633   1.405       .  A
C1633      C1634   1.406       .  A
C1633     Br1640   1.930       .  S
C1634     Br1639   1.930   1_455  S
C1635      C1636   1.411       .  A
C1636     Br1637   1.923       .  S
N1641      N1642   1.322       .  A
N1641      C1645   1.351       .  A
N1642      C1643   1.339       .  A
C1643      C1644   1.381       .  A
C1643      H1646   1.082       .  S
C1644      C1645   1.387       .  A
C1644      C1864   1.472       .  S
C1645      H1647   1.082       .  S
Cu1648     N1651   2.073   1_556  S
Cu1649     N1659   2.096       .  S
Cu1650     N1652   2.080       .  S
Cu1650     N1658   2.082       .  S
N1651      N1652   1.320   1_554  A
N1651      C1655   1.343       .  A
N1652      C1653   1.351   1_556  A
C1653      C1654   1.388       .  A
C1653      H1656   1.082       .  S
C1654      C1655   1.385       .  A
C1655      H1657   1.082       .  S
N1658      N1659   1.326       .  A
N1658      C1662   1.342       .  A
N1659      C1660   1.352       .  A
C1660      C1661   1.385       .  A
C1660      H1663   1.082       .  S
C1661      C1662   1.378       .  A
C1661      C1960   1.478       .  S
C1662      H1664   1.082       .  S
N1665      N1666   1.321       .  A
N1665      C1669   1.353       .  A
N1665     Cu1673   2.082       .  S
N1666      C1667   1.336       .  A
N1666     Cu1672   2.057       .  S
C1667      C1668   1.378       .  A
C1667      H1670   1.082       .  S
C1668      C1669   1.389       .  A
C1668      C1830   1.470       .  S
C1669      H1671   1.082       .  S
Cu1672     N1675   2.057       .  S
Cu1673     N1683   2.084       .  S
Cu1674     N1676   2.080       .  S
Cu1674     N1682   2.083       .  S
N1675      N1676   1.319       .  A
C1677      C1678   1.391       .  A
C1677      H1680   1.082       .  S
C1678      C1679   1.379       .  A
N1682      N1683   1.327       .  A
N1682      C1686   1.342       .  A
N1683      C1684   1.348       .  A
C1684      C1685   1.382       .  A
C1684      H1687   1.082       .  S
C1685      C1686   1.380       .  A
C1685      C1953   1.474       .  S
C1686      H1688   1.082       .  S
N1689      C1693   1.385       .  A
N1689      C1690   1.367       .  A
N1689      N1696   1.423       .  S
C1690      C1963   1.482       .  S
C1691      C1692   1.362   1_455  A
C1691      H1694   1.083       .  S
C1692      H1695   1.061       .  S
N1696      C1700   1.389       .  A
N1696      C1697   1.367       .  A
C1697      C1698   1.374       .  A
C1697      C1950   1.492       .  S
C1698      C1699   1.362       .  A
C1698      H1701   1.083       .  S
C1699      C1700   1.380       .  A
C1699      H1702   1.059       .  S
C1700      C1762   1.526       .  S
N1703      N1704   1.320       .  A
N1703     Cu1711   2.074       .  S
N1704      C1705   1.342       .  A
N1704     Cu1710   2.065       .  S
C1705      H1708   1.082       .  S
C1706      C1707   1.386   1_455  A
C1706      C1792   1.465   1_455  S
C1707      H1709   1.082       .  S
Cu1710     N1713   2.064       .  S
Cu1711     N1721   2.074       .  S
Cu1712     N1714   2.096       .  S
Cu1712     N1720   2.098       .  S
N1713      N1714   1.320       .  A
N1713      C1717   1.340       .  A
N1714      C1715   1.354       .  A
C1715      C1716   1.392       .  A
C1715      H1718   1.082       .  S
C1716      C1717   1.382       .  A
C1716      C1740   1.482       .  S
C1717      H1719   1.081       .  S
N1720      N1721   1.323       .  A
N1720      C1724   1.346       .  A
N1721      C1722   1.343       .  A
C1722      C1723   1.386       .  A
C1722      H1725   1.082       .  S
C1723      C1724   1.392       .  A
C1723      C1940   1.496       .  S
C1724      H1726   1.081       .  S
N1727      N1728   1.321       .  A
N1727      C1731   1.350       .  A
N1727     Cu1735   2.074       .  S
N1728      C1729   1.341       .  A
N1728     Cu1734   2.070   1_655  S
C1729      C1730   1.381       .  A
C1729      H1732   1.082       .  S
C1730      C1731   1.384       .  A
C1730      C1768   1.468   1_565  S
C1731      H1733   1.082       .  S
Cu1735     N1745   2.075       .  S
Cu1736     N1744   2.091       .  S
N1737      N1738   1.321       .  A
C1739      C1740   1.391       .  A
C1739      H1742   1.082       .  S
C1740      C1741   1.382       .  A
C1741      H1743   1.082       .  S
N1744      N1745   1.323   1_455  A
N1744      C1748   1.345       .  A
N1745      C1746   1.344       .  A
C1746      C1747   1.386       .  A
C1746      H1749   1.082       .  S
C1747      C1748   1.390   1_655  A
C1747      C1930   1.494       .  S
C1748      H1750   1.081       .  S
N1751      C1755   1.393       .  A
N1751      C1752   1.375       .  A
C1752      C1753   1.387       .  A
C1752      C1943   1.493   1_655  S
C1753      C1754   1.359       .  A
C1753      H1756   1.083       .  S
C1754      C1755   1.375       .  A
C1754      H1757   1.082       .  S
C1755      N1758   1.465       .  S
N1758      C1762   1.395       .  A
N1758      C1759   1.381       .  A
C1759      C1760   1.373       .  A
C1759      C1933   1.506       .  S
C1760      C1761   1.354       .  A
C1760      H1763   1.083       .  S
C1761      C1762   1.379       .  A
C1761      H1764   1.064       .  S
N1765      N1766   1.321       .  A
N1765      C1769   1.351       .  A
N1765     Cu1773   2.091       .  S
N1766      C1767   1.339       .  A
N1766     Cu1772   2.052       .  S
C1767      C1768   1.378       .  A
C1767      H1770   1.082       .  S
C1768      C1769   1.389       .  A
C1769      H1771   1.082       .  S
Cu1772     N1775   2.056       .  S
Cu1773     N1783   2.092       .  S
Cu1774     N1776   2.066       .  S
Cu1774     N1782   2.065       .  S
N1775      N1776   1.321       .  A
N1775      C1779   1.341   1_556  A
N1776      C1777   1.344   1_556  A
C1777      H1780   1.082       .  S
C1778      C1802   1.464       .  S
C1779      H1781   1.082       .  S
N1782      N1783   1.321       .  A
N1782      C1786   1.342       .  A
N1783      C1784   1.347       .  A
C1784      C1785   1.393       .  A
C1784      H1787   1.080       .  S
C1785      C1786   1.386       .  A
C1785      C1920   1.496       .  S
C1786      H1788   1.081       .  S
N1789      N1790   1.322       .  A
N1789      C1793   1.351       .  A
N1789     Cu1797   2.091       .  S
N1790      C1791   1.340       .  A
N1790     Cu1796   2.054       .  S
C1791      C1792   1.376   1_545  A
C1791      H1794   1.082       .  S
C1792      C1793   1.387   1_565  A
C1793      H1795   1.082   1_655  S
Cu1796     N1799   2.053       .  S
Cu1797     N1807   2.091       .  S
Cu1798     N1800   2.058       .  S
Cu1798     N1806   2.057       .  S
N1799      N1800   1.319       .  A
N1799      C1803   1.340       .  A
N1800      C1801   1.344       .  A
C1801      C1802   1.383       .  A
C1801      H1804   1.082       .  S
C1802      C1803   1.381       .  A
C1803      H1805   1.082       .  S
N1806      N1807   1.322       .  A
N1806      C1810   1.338       .  A
N1807      C1808   1.349       .  A
C1808      C1809   1.392       .  A
C1808      H1811   1.081       .  S
C1809      C1810   1.381       .  A
C1809      C1910   1.489       .  S
C1810      H1812   1.082       .  S
N1813      C1814   1.373       .  A
N1813      C1824   1.459   1_455  S
C1814      C1913   1.487   1_455  S
C1815      C1816   1.361       .  A
C1815      H1818   1.083       .  S
C1816      C1817   1.385       .  A
C1816      H1819   1.070       .  S
C1817      C1879   1.514       .  S
N1820      C1824   1.384       .  A
N1820      C1821   1.373       .  A
N1820      C1886   1.472       .  S
C1821      C1822   1.390       .  A
C1821      C1923   1.496       .  S
C1822      C1823   1.360   1_655  A
C1822      H1825   1.083       .  S
C1823      C1824   1.370   1_455  A
C1823      H1826   1.077       .  S
N1827      N1828   1.321       .  A
N1827      C1831   1.353       .  A
N1827     Cu1835   2.088       .  S
N1828      C1829   1.337       .  A
N1828     Cu1834   2.058       .  S
C1829      C1830   1.378       .  A
C1829      H1832   1.082       .  S
C1830      C1831   1.390       .  A
C1831      H1833   1.082       .  S
Cu1834     N1837   2.060       .  S
Cu1835     N1845   2.091       .  S
Cu1836     N1838   2.089       .  S
Cu1836     N1844   2.093       .  S
N1837      N1838   1.319       .  A
N1837      C1841   1.339       .  A
N1838      C1839   1.354       .  A
C1839      C1840   1.390       .  A
C1839      H1842   1.082       .  S
C1840      C1841   1.382       .  A
C1840      C1854   1.476       .  S
C1841      H1843   1.082       .  S
N1844      N1845   1.328       .  A
N1844      C1848   1.343       .  A
N1845      C1846   1.350       .  A
C1846      C1847   1.383       .  A
C1846      H1849   1.082       .  S
C1847      C1848   1.380       .  A
C1847      C1903   1.479       .  S
C1848      H1850   1.082       .  S
N1851      N1852   1.318       .  A
N1851     Cu1859   2.097       .  S
N1852     Cu1858   2.041       .  S
C1853      C1854   1.378       .  A
C1853      H1856   1.082       .  S
C1854      C1855   1.394       .  A
C1855      H1857   1.082       .  S
Cu1858     N1861   2.042       .  S
Cu1859     N1869   2.101       .  S
Cu1860     N1862   2.094       .  S
Cu1860     N1868   2.099       .  S
N1861      N1862   1.320       .  A
N1861      C1865   1.336       .  A
N1862      C1863   1.354       .  A
C1863      C1864   1.391       .  A
C1863      H1866   1.082       .  S
C1864      C1865   1.376       .  A
C1865      H1867   1.082       .  S
N1868      N1869   1.329       .  A
N1868      C1872   1.351       .  A
N1869      C1870   1.344       .  A
C1870      C1871   1.381       .  A
C1870      H1873   1.082       .  S
C1871      C1872   1.384       .  A
C1871      C1893   1.480       .  S
C1872      H1874   1.082       .  S
N1875      C1879   1.382       .  A
N1875      C1876   1.368       .  A
N1875      N1882   1.423       .  S
C1876      C1877   1.375       .  A
C1876      C1890   1.488       .  S
C1877      C1878   1.361       .  A
C1877      H1880   1.083       .  S
C1878      C1879   1.384       .  A
N1882      C1886   1.389       .  A
N1882      C1883   1.370       .  A
C1883      C1884   1.372       .  A
C1883      C1900   1.486       .  S
C1884      C1885   1.360       .  A
C1884      H1887   1.083       .  S
C1885      C1886   1.385       .  A
C1885      H1888   1.067       .  S
C1889      C1890   1.419       .  A
C1889      C1894   1.406       .  A
C1889     Br1896   1.926       .  S
C1890      C1891   1.410       .  A
C1891      C1892   1.411       .  A
C1891     Br1898   1.915       .  S
C1892      C1893   1.407       .  A
C1892     Br1897   1.928       .  S
C1893      C1894   1.404       .  A
C1894     Br1895   1.932       .  S
C1899      C1900   1.417       .  A
C1899      C1904   1.408       .  A
C1899     Br1906   1.927       .  S
C1900      C1901   1.414       .  A
C1901      C1902   1.409       .  A
C1901     Br1908   1.915       .  S
C1902      C1903   1.406       .  A
C1902     Br1907   1.931       .  S
C1903      C1904   1.405       .  A
C1904     Br1905   1.929       .  S
C1909      C1910   1.412       .  A
C1909      C1914   1.408       .  A
C1909     Br1916   1.933   1_655  S
C1910      C1911   1.413       .  A
C1911      C1912   1.407       .  A
C1911     Br1918   1.934       .  S
C1912      C1913   1.415       .  A
C1912     Br1917   1.925       .  S
C1913      C1914   1.411       .  A
C1919      C1920   1.414       .  A
C1919      C1924   1.406       .  A
C1919     Br1926   1.935       .  S
C1920      C1921   1.417       .  A
C1921      C1922   1.410       .  A
C1921     Br1928   1.932       .  S
C1922      C1923   1.417       .  A
C1922     Br1927   1.925       .  S
C1923      C1924   1.410       .  A
C1924     Br1925   1.907       .  S
C1929      C1930   1.411       .  A
C1929      C1934   1.408       .  A
C1929     Br1936   1.937       .  S
C1930      C1931   1.412       .  A
C1931      C1932   1.415       .  A
C1931     Br1938   1.936       .  S
C1932      C1933   1.420       .  A
C1932     Br1937   1.913       .  S
C1933      C1934   1.424       .  A
C1934     Br1935   1.938       .  S
C1939      C1944   1.412       .  A
C1939     Br1946   1.937       .  S
C1940      C1941   1.413       .  A
C1941      C1942   1.409       .  A
C1941     Br1948   1.939       .  S
C1942     Br1947   1.922       .  S
C1943      C1944   1.411       .  A
C1944     Br1945   1.916       .  S
C1949      C1950   1.415       .  A
C1949      C1954   1.407       .  A
C1949     Br1956   1.902       .  S
C1950      C1951   1.419       .  A
C1951      C1952   1.407       .  A
C1951     Br1958   1.928       .  S
C1952      C1953   1.406       .  A
C1952     Br1957   1.932       .  S
C1953      C1954   1.402       .  A
C1954     Br1955   1.933       .  S
C1959      C1964   1.409       .  A
C1959     Br1966   1.930       .  S
C1960      C1961   1.405       .  A
C1961      C1962   1.408       .  A
C1961     Br1968   1.930       .  S
C1962     Br1967   1.926   1_455  S
C1963      C1964   1.411       .  A
C1964     Br1965   1.923       .  S
