geometry optimzed in LAMMPS
_audit_creation_date              2020-11-30 
_audit_creation_method            'lammps2cif' 
_symmetry_space_group_name_H-M    'P1' 
_symmetry_Int_Tables_number       1 
_symmetry_cell_setting            triclinic 
loop_ 
_symmetry_equiv_pos_as_xyz 
  x,y,z 
_cell_length_a                    45.11287180015305 
_cell_length_b                    44.664826184357736 
_cell_length_c                    44.75562674216444 
_cell_angle_alpha                 90.26666333505018 
_cell_angle_beta                  90.01156361643177 
_cell_angle_gamma                 90.00945468634951 
loop_ 
_atom_site_label 
_atom_site_type_symbol 
_atom_site_fract_x 
_atom_site_fract_y 
_atom_site_fract_z 
_atom_site_charge 
C1          C  0.08903459  0.99558506  0.18160975     0.41930
N2          N  0.06046815  0.01108443  0.21686413     0.00820
C3          C  0.46594472  0.42439071  0.30258521    -0.07060
H4          H  0.44626846  0.42205861  0.18526005     0.06310
C5          C  0.42179522  0.03017305  0.19014175    -0.07410
Co6        Co  0.03255820  0.45996496  0.24939717     0.74180
N7          N  0.47925141  0.44051812  0.21512753    -0.26590
Co8        Co  0.45600629  0.46533081  0.24690709     0.74070
C9          C  0.40991424  0.00338385  0.17531446     0.42030
N10         N  0.48769023  0.06360679  0.21424153     0.00430
N11         N  0.43605711  0.49032072  0.21326748     0.00540
N12         N  0.01606761  0.42111989  0.30265561    -0.47440
H13         H  0.07604044  0.44637124  0.19049377     0.06290
N14         N  0.00837939  0.43804240  0.21627776     0.00820
N15         N  0.43357767  0.49125793  0.27857929     0.00560
C16         C  0.40469717  0.50627784  0.31374255     0.42170
N17         N  0.01684916  0.06135789  0.21501983    -0.26050
C18         C  0.07192968  0.47283930  0.30561515    -0.06970
N19         N  0.07899565  0.02037767  0.19586607    -0.47150
N20         N  0.41507574  0.48166192  0.29947527    -0.47380
C21         C  0.08440691  0.49963725  0.31988039     0.41940
N22         N  0.00643947  0.43902288  0.28127903     0.00810
N23         N  0.01499601  0.06236948  0.27993011    -0.26070
N24         N  0.05780379  0.48170488  0.21730943    -0.26560
N25         N  0.48578452  0.06415962  0.27945866     0.00450
H26         H  0.04832072  0.08280430  0.30802917     0.06340
H27         H  0.41671266  0.05571614  0.30498631     0.06370
N28         N  0.47724857  0.44108192  0.28047835    -0.26610
N29         N  0.43786646  0.01977566  0.21309956    -0.26220
N30         N  0.05820369  0.01252667  0.28201094     0.00810
C31         C  0.99576912  0.41189886  0.17824520     0.42210
C32         C  0.02833785  0.07800988  0.19306792    -0.07470
N33         N  0.43598581  0.02068033  0.27825789    -0.26220
H34         H  0.41818086  0.05356284  0.18532148     0.06360
N35         N  0.01917490  0.42060328  0.19488047    -0.47440
H36         H  0.05170717  0.08074749  0.18853454     0.06350
C37         C  0.49879949  0.09156218  0.31638696     0.42050
C38         C  0.07439227  0.46997124  0.19546708    -0.06970
Co39       Co  0.03814620  0.03726968  0.24837726     0.73790
N40         N  0.47828860  0.08154740  0.19276612    -0.47160
C41         C  0.49179832  0.41145522  0.31722031     0.42310
N42         N  0.07514127  0.02326716  0.30370799    -0.47150
Co43       Co  0.46141032  0.04258353  0.24625638     0.73890
C44         C  0.41901147  0.03215370  0.29999503    -0.07480
C45         C  0.46923011  0.42470785  0.19169099    -0.07040
N46         N  0.05606463  0.48308552  0.28247965    -0.26570
N47         N  0.41939232  0.47968492  0.19133858    -0.47330
H48         H  0.44264669  0.42084012  0.30702141     0.06320
C49         C  0.02526700  0.07924634  0.30246915    -0.07450
Cl50       Cl  0.99702020  0.00129840  0.24775610    -0.50460
C51         C  0.00269734  0.09170550  0.17859824     0.42080
H52         H  0.07486681  0.44951650  0.31126540     0.06290
N53         N  0.47512380  0.08170886  0.30082968    -0.47170
C54         C  0.99590039  0.18066124  0.08536998     0.41930
N55         N  0.00862964  0.21849410  0.05892500     0.00820
C56         C  0.41902129  0.30568419  0.46921024    -0.07060
H57         H  0.41694948  0.18986494  0.44547765     0.06310
C58         C  0.02568368  0.19670065  0.41971564    -0.07410
Co59       Co  0.45636224  0.25079493  0.03386049     0.74180
N60         N  0.43671159  0.21785024  0.47926144    -0.26590
Co61       Co  0.46017382  0.25104366  0.45658855     0.74070
C62         C  0.99960581  0.18139322  0.40822540     0.42030
N63         N  0.05922413  0.21956340  0.48511856     0.00430
N64         N  0.48556494  0.21862809  0.43476951     0.00540
N65         N  0.41643046  0.30439300  0.01970300    -0.47440
H66         H  0.44619115  0.19044829  0.07795380     0.06290
N67         N  0.43561180  0.21765680  0.00868964     0.00820
N68         N  0.48472324  0.28431087  0.43511810     0.00560
C69         C  0.49786203  0.32168063  0.40848524     0.42170
N70         N  0.05743295  0.21961283  0.01451892    -0.26050
C71         C  0.46784526  0.30631229  0.07484285    -0.06970
N72         N  0.01937512  0.19656493  0.07549573    -0.47150
N73         N  0.47413508  0.30613982  0.41823332    -0.47380
C74         C  0.49408762  0.32043294  0.08759902     0.41940
N75         N  0.43406562  0.28314551  0.00908095     0.00810
N76         N  0.05629734  0.28481150  0.01510655    -0.26070
N77         N  0.47943887  0.21838679  0.05773453    -0.26560
N78         N  0.05828970  0.28493892  0.48570964     0.00450
H79         H  0.07455969  0.31295315  0.04953745     0.06340
H80         H  0.04738925  0.31252914  0.41640659     0.06370
N81         N  0.43576150  0.28327950  0.47964678    -0.26610
N82         N  0.01479607  0.21926431  0.43616352    -0.26220
N83         N  0.00771953  0.28388947  0.05985337     0.00810
C84         C  0.40999248  0.17920748  0.49555970     0.42210
C85         C  0.07451050  0.19762163  0.02514436    -0.07470
N86         N  0.01396897  0.28442356  0.43650470    -0.26220
H87         H  0.04889080  0.19181494  0.41612813     0.06360
N88         N  0.41976145  0.19518108  0.01928234    -0.47440
H89         H  0.07783848  0.19271761  0.04854824     0.06350
C90         C  0.08550823  0.32173412  0.49992750     0.42050
C91         C  0.46929239  0.19549340  0.07406788    -0.06970
Co92       Co  0.03291000  0.25171022  0.03759776     0.73820
N93         N  0.07727089  0.19851761  0.47474723    -0.47160
C94         C  0.40658200  0.31986473  0.49584181     0.42310
N95         N  0.01797955  0.30525042  0.07765961    -0.47150
Co96       Co  0.03707382  0.25206447  0.46035770     0.73890
C97         C  0.02430309  0.30713119  0.42004127    -0.07480
C98         C  0.42078559  0.19467250  0.46883131    -0.07040
N99         N  0.47851373  0.28378185  0.05810871    -0.26570
N100        N  0.47549470  0.19640051  0.41790134    -0.47330
H101        H  0.41537815  0.31078577  0.44590178     0.06320
C102        C  0.07227705  0.30755551  0.02609738    -0.07450
Cl103      Cl  0.49662573  0.25145056  0.49709363    -0.50460
C104        C  0.08763415  0.18349759  0.49872522     0.42080
H105        H  0.44468215  0.31137269  0.07850534     0.06290
N106        N  0.07560638  0.30663499  0.47566882    -0.47170
C107        C  0.31272035  0.40748108  0.49537353     0.41930
N108        N  0.27774941  0.43697583  0.00862368     0.00820
C109        C  0.19402584  0.03090323  0.41971928    -0.07060
H110        H  0.30894295  0.05412121  0.41997200     0.06310
C111        C  0.30265313  0.07599637  0.03002341    -0.07410
Co112      Co  0.24781373  0.46499252  0.45631018     0.74180
N113        N  0.28108258  0.01972826  0.43853284    -0.26590
Co114      Co  0.24836332  0.04255876  0.46248391     0.74070
C115        C  0.31716197  0.08991672  0.50435955     0.42030
N116        N  0.27816086  0.01000648  0.06159785     0.00430
N117        N  0.28049953  0.06323679  0.48904905     0.00540
N118        N  0.19548776  0.48046443  0.41686454    -0.47440
H119        H  0.30612888  0.41841578  0.44557006     0.06290
N120        N  0.28119320  0.49025435  0.43620419     0.00820
N121        N  0.21588533  0.06450340  0.48770883     0.00560
C122        C  0.18064142  0.09350728  0.50238534     0.42170
N123        N  0.27768551  0.48059350  0.05898584    -0.26050
C124        C  0.19138402  0.42524987  0.46604991    -0.06970
N125        N  0.29760984  0.41796100  0.01921305    -0.47150
N126        N  0.19545521  0.08347052  0.47799537    -0.47380
C127        C  0.17547614  0.41381114  0.49216868     0.41940
N128        N  0.21650070  0.49096638  0.43456865     0.00810
N129        N  0.21301459  0.48204122  0.05727829    -0.26070
N130        N  0.27882804  0.43943612  0.47927623    -0.26560
N131        N  0.21342791  0.01141429  0.06004428     0.00450
H132        H  0.18450931  0.44785318  0.07505961     0.06340
H133        H  0.18809180  0.07993963  0.05160915     0.06370
N134        N  0.21626801  0.02042582  0.43674635    -0.26610
N135        N  0.28004579  0.06038715  0.01836831    -0.26220
N136        N  0.21321457  0.43922927  0.00678537     0.00810
C137        C  0.31841584  0.50438310  0.40986467     0.42210
C138        C  0.29962873  0.46912478  0.07557213    -0.07470
N139        N  0.21548592  0.06162116  0.01701730    -0.26220
H140        H  0.30778080  0.07755276  0.05355178     0.06360
N141        N  0.30289341  0.48015762  0.41889260    -0.47440
H142        H  0.30467580  0.44557990  0.07760367     0.06350
C143        C  0.17584924  0.99760853  0.08597563     0.42050
C144        C  0.30056418  0.42182767  0.46884912    -0.06970
Co145      Co  0.24543764  0.45922535  0.03329367     0.73820
N146        N  0.29940550  0.01962629  0.07966043    -0.47160
C147        C  0.18032655  0.00413746  0.40638770     0.42310
N148        N  0.19068908  0.42307357  0.01646371    -0.47150
Co149      Co  0.24679998  0.03625002  0.03974082     0.73890
C150        C  0.19359950  0.07842567  0.02819398    -0.07480
C151        C  0.30377361  0.03064898  0.42268840    -0.07040
N152        N  0.21419063  0.44094470  0.47741147    -0.26570
N153        N  0.30231665  0.08069738  0.47974726    -0.47330
H154        H  0.18867869  0.05426859  0.41653900     0.06320
C155        C  0.19007084  0.47127717  0.07280195    -0.07450
Cl156      Cl  0.24715334  0.00077457  0.49794657    -0.50460
C157        C  0.31377857  0.49510159  0.08962932     0.42080
H158        H  0.18700105  0.42193113  0.44252957     0.06290
N159        N  0.19185150  0.02166416  0.07739624    -0.47170
C160        C  0.33654269  0.38493609  0.49643985    -0.06650
C161        C  0.36119870  0.38898584  0.47790287    -0.17780
C162        C  0.38489546  0.36887868  0.47824030     0.10540
C163        C  0.38380992  0.34356663  0.49699568    -0.06580
C164        C  0.35936404  0.33975342  0.01598141    -0.17820
C165        C  0.33555555  0.35986323  0.01558551     0.10570
S166        S  0.41636034  0.37770056  0.45524598    -0.32780
S167        S  0.30378851  0.35102240  0.03832790    -0.32790
H168        H  0.28274821  0.35989049  0.01690704     0.28580
H169        H  0.43757734  0.36609576  0.47511428     0.28580
H170        H  0.36236945  0.40841350  0.46355571     0.19170
H171        H  0.35814383  0.32022171  0.03019761     0.19180
C172        C  0.38832161  0.15427932  0.49805453    -0.06650
C173        C  0.37075819  0.15319124  0.02393609    -0.17780
C174        C  0.34755524  0.13268467  0.02687528     0.10540
C175        C  0.34192862  0.11178028  0.50367873    -0.06580
C176        C  0.36023882  0.11205807  0.47829105    -0.17820
C177        C  0.38355705  0.13256166  0.47543229     0.10570
S178        S  0.32473201  0.13666523  0.05965010    -0.32780
S179        S  0.40715569  0.12836401  0.44325576    -0.32790
H180        H  0.43327735  0.13542186  0.45892029     0.28580
H181        H  0.29792985  0.13533146  0.04361532     0.28580
H182        H  0.37410429  0.16950380  0.04160557     0.19170
H183        H  0.35667703  0.09576059  0.46063873     0.19180
C184        C  0.10809038  0.34578804  0.49884139    -0.06650
C185        C  0.10768077  0.36560949  0.47454158    -0.17780
C186        C  0.12857808  0.38869655  0.47195543     0.10540
C187        C  0.15117303  0.39155659  0.49369335    -0.06580
C188        C  0.15137590  0.37185607  0.01802385    -0.17820
C189        C  0.13039665  0.34900037  0.02084011     0.10570
S190        S  0.12408183  0.41435197  0.44132266    -0.32780
S191        S  0.13471131  0.32272280  0.05114188    -0.32790
H192        H  0.15548286  0.33929600  0.06784383     0.28580
H193        H  0.13251019  0.43986501  0.45780164     0.28580
H194        H  0.09051157  0.36349275  0.45772053     0.19170
H195        H  0.16887560  0.37364277  0.03447946     0.19180
C196        C  0.11168308  0.16071894  0.49843630    -0.06650
C197        C  0.12926767  0.15801585  0.02414440    -0.17780
C198        C  0.15216799  0.13695333  0.02607071     0.10540
C199        C  0.15734373  0.11708743  0.50183201    -0.06580
C200        C  0.14007269  0.12008302  0.47586149    -0.17820
C201        C  0.11768343  0.14176499  0.47376633     0.10570
S202        S  0.17584014  0.13829753  0.05865076    -0.32780
S203        S  0.09697262  0.14332770  0.43945818    -0.32790
H204        H  0.10743612  0.17215358  0.43250941     0.28580
H205        H  0.15728975  0.15604598  0.07674725     0.28580
H206        H  0.12578628  0.17325950  0.04261960     0.19170
H207        H  0.14395686  0.10532324  0.45699159     0.19180
C208        C  0.38203976  0.50589887  0.33781283    -0.06650
C209        C  0.38148942  0.48152683  0.35757543    -0.17780
C210        C  0.36154714  0.48053886  0.38162992     0.10540
C211        C  0.34131892  0.50435138  0.38607664    -0.06580
C212        C  0.34179222  0.02853391  0.36619185    -0.17820
C213        C  0.36121588  0.02927074  0.34190615     0.10570
S214        S  0.36386206  0.44883202  0.40629359    -0.32780
S215        S  0.35600033  0.05936485  0.31575118    -0.32790
H216        H  0.35965935  0.04110611  0.29031043     0.28580
H217        H  0.35840384  0.46534089  0.43256520     0.28580
H218        H  0.39720045  0.46339749  0.35470285     0.19170
H219        H  0.32584590  0.04649508  0.36863440     0.19180
C220        C  0.15539255  0.00217047  0.38468467    -0.06650
C221        C  0.13638168  0.02686925  0.38160688    -0.17780
C222        C  0.11285666  0.02655018  0.36117220     0.10540
C223        C  0.10784972  0.50095919  0.34315021    -0.06580
C224        C  0.12639204  0.47604296  0.34667528    -0.17820
C225        C  0.15002084  0.47622969  0.36701864     0.10570
S226        S  0.08918520  0.05893168  0.36013805    -0.32780
S227        S  0.17363374  0.44349304  0.36848443    -0.32790
H228        H  0.15580439  0.42436229  0.35106041     0.28580
H229        H  0.10106095  0.06862818  0.33276464     0.28580
H230        H  0.13967481  0.04661549  0.39531492     0.19170
H231        H  0.12300144  0.45656549  0.33268011     0.19180
C232        C  0.15266682  0.99766431  0.10947061    -0.06650
C233        C  0.15009511  0.47212686  0.12739152    -0.17780
C234        C  0.13058210  0.47107527  0.15153484     0.10540
C235        C  0.11164081  0.99570080  0.15746253    -0.06580
C236        C  0.11419887  0.02136795  0.13955638    -0.17820
C237        C  0.13432728  0.02262032  0.11570009     0.10570
S238        S  0.13362618  0.43866883  0.17514518    -0.32780
S239        S  0.13476582  0.05633814  0.09372240    -0.32790
H240        H  0.13796818  0.04140694  0.06616348     0.28580
H241        H  0.13271617  0.45533884  0.20188682     0.28580
H242        H  0.16458403  0.45315771  0.12366998     0.19170
H243        H  0.09999319  0.04048101  0.14379291     0.19180
C244        C  0.38687502  0.00114952  0.15167240    -0.06650
C245        C  0.36778829  0.47629329  0.15234909    -0.17780
C246        C  0.34371929  0.47370595  0.13282893     0.10540
C247        C  0.33874022  0.49610742  0.11116729    -0.06580
C248        C  0.35817359  0.02065390  0.10999463    -0.17820
C249        C  0.38235015  0.02319054  0.12950950     0.10570
S250        S  0.31910403  0.44253472  0.13876771    -0.32780
S251        S  0.40723093  0.05413333  0.12352442    -0.32790
H252        H  0.43304955  0.03773762  0.13001624     0.28580
H253        H  0.29311469  0.45965143  0.13567053     0.28580
H254        H  0.37076545  0.45921463  0.16920550     0.19170
H255        H  0.35492275  0.03774570  0.09318806     0.19180
C256        C  0.99913263  0.15797090  0.38526245    -0.06650
C257        C  0.00361262  0.16643730  0.35552246    -0.17780
C258        C  0.00286534  0.14524775  0.33248285     0.10540
C259        C  0.49772940  0.11491460  0.33940346    -0.06580
C260        C  0.49319339  0.10641526  0.36914630    -0.17820
C261        C  0.49418300  0.12761637  0.39224466     0.10570
S262        S  0.00906940  0.15826733  0.29488896    -0.32780
S263        S  0.48968510  0.11442088  0.43000912    -0.32790
H264        H  0.50627844  0.13707603  0.44407545     0.28580
H265        H  0.99129274  0.13677749  0.28049935     0.28580
H266        H  0.00753254  0.18975945  0.35021535     0.19170
H267        H  0.48963099  0.08304006  0.37445794     0.19180
C268        C  0.49220969  0.38798775  0.34003473    -0.06650
C269        C  0.48800308  0.39630586  0.36994393    -0.17780
C270        C  0.49089959  0.37531225  0.39288385     0.10540
C271        C  0.49670387  0.34510851  0.38563330    -0.06580
C272        C  0.00103221  0.33681262  0.35572801    -0.17820
C273        C  0.99901324  0.35795146  0.33285253     0.10570
S274        S  0.48836363  0.38877579  0.43082489    -0.32780
S275        S  0.00556516  0.34523272  0.29509646    -0.32790
H276        H  0.98670651  0.36590000  0.28108695     0.28580
H277        H  0.50618015  0.36659494  0.44386718     0.28580
H278        H  0.48357251  0.41951096  0.37552785     0.19170
H279        H  0.00584449  0.31368084  0.35016589     0.19180
C280        C  0.49489900  0.34364548  0.11092695    -0.06650
C281        C  0.48361068  0.37210606  0.10439577    -0.17780
C282        C  0.48481857  0.39526128  0.12555168     0.10540
C283        C  0.99696065  0.38962225  0.15404291    -0.06580
C284        C  0.00859447  0.36128138  0.16041099    -0.17820
C285        C  0.00731789  0.33813141  0.13932322     0.10570
S286        S  0.47149929  0.43167618  0.11457729    -0.32780
S287        S  0.02033327  0.30169706  0.15056613    -0.32790
H288        H  0.49916862  0.28528459  0.13422181     0.28580
H289        H  0.49078711  0.44824694  0.13299783     0.28580
H290        H  0.47437528  0.37647101  0.08248394     0.19170
H291        H  0.01757585  0.35679243  0.18240765     0.19180
C292        C  0.99800637  0.15638132  0.10767546    -0.06650
C293        C  0.02141187  0.15759194  0.12831695    -0.17780
C294        C  0.02342180  0.13723858  0.15185454     0.10540
C295        C  0.00204948  0.11422654  0.15448948    -0.06580
C296        C  0.47893974  0.11265249  0.13354383    -0.17820
C297        C  0.47690696  0.13306443  0.10998814     0.10570
S298        S  0.05227076  0.14379991  0.17895760    -0.32780
S299        S  0.44786821  0.12688042  0.08297098    -0.32790
H300        H  0.46492150  0.13571529  0.05821664     0.28580
H301        H  0.03399119  0.13832467  0.20381317     0.28580
H302        H  0.03758399  0.17546688  0.12700605     0.19170
H303        H  0.46267358  0.09490396  0.13513723     0.19180
C304        C  0.08903461  0.99558509  0.68160976     0.41930
N305        N  0.06046814  0.01108445  0.71686412     0.00820
C306        C  0.46594475  0.42439070  0.80258519    -0.07060
H307        H  0.44626847  0.42205862  0.68526004     0.06310
C308        C  0.42179523  0.03017306  0.69014176    -0.07410
Co309      Co  0.03255822  0.45996499  0.74939716     0.74180
N310        N  0.47925143  0.44051812  0.71512751    -0.26590
Co311      Co  0.45600630  0.46533080  0.74690708     0.74070
C312        C  0.40991425  0.00338387  0.67531446     0.42030
N313        N  0.48769023  0.06360680  0.71424155     0.00430
N314        N  0.43605711  0.49032071  0.71326748     0.00540
N315        N  0.01606764  0.42111991  0.80265560    -0.47440
H316        H  0.07604053  0.44637128  0.69049378     0.06290
N317        N  0.00837941  0.43804243  0.71627774     0.00820
N318        N  0.43357768  0.49125791  0.77857928     0.00560
C319        C  0.40469717  0.50627781  0.81374255     0.42170
N320        N  0.01684914  0.06135790  0.71501983    -0.26050
C321        C  0.07192970  0.47283933  0.80561513    -0.06970
N322        N  0.07899565  0.02037770  0.69586608    -0.47150
N323        N  0.41507574  0.48166189  0.79947526    -0.47380
C324        C  0.08440693  0.49963727  0.81988038     0.41940
N325        N  0.00643950  0.43902290  0.78127902     0.00810
N326        N  0.01499599  0.06236947  0.77993011    -0.26070
N327        N  0.05780381  0.48170492  0.71730942    -0.26560
N328        N  0.48578453  0.06415961  0.77945868     0.00450
H329        H  0.04832070  0.08280430  0.80802918     0.06340
H330        H  0.41671266  0.05571612  0.80498631     0.06370
N331        N  0.47724859  0.44108191  0.78047833    -0.26610
N332        N  0.43786647  0.01977567  0.71309956    -0.26220
N333        N  0.05820369  0.01252669  0.78201093     0.00810
C334        C  0.99576913  0.41189889  0.67824519     0.42210
C335        C  0.02833783  0.07800989  0.69306792    -0.07470
N336        N  0.43598582  0.02068032  0.77825790    -0.26220
H337        H  0.41818087  0.05356286  0.68532149     0.06360
N338        N  0.01917491  0.42060331  0.69488046    -0.47440
H339        H  0.05170715  0.08074751  0.68853455     0.06350
C340        C  0.49879950  0.09156217  0.81638698     0.42050
C341        C  0.07439232  0.46997129  0.69546708    -0.06970
Co342      Co  0.03814619  0.03726969  0.74837726     0.73790
N343        N  0.47828860  0.08154741  0.69276615    -0.47160
C344        C  0.49179834  0.41145521  0.81722029     0.42310
N345        N  0.07514128  0.02326718  0.80370798    -0.47150
Co346      Co  0.46141033  0.04258353  0.74625639     0.73890
C347        C  0.41901147  0.03215368  0.79999503    -0.07480
C348        C  0.46923013  0.42470786  0.69169097    -0.07040
N349        N  0.05606465  0.48308554  0.78247964    -0.26570
N350        N  0.41939233  0.47968492  0.69133858    -0.47330
H351        H  0.44264672  0.42084011  0.80702139     0.06320
C352        C  0.02526698  0.07924634  0.80246915    -0.07450
Cl353      Cl  0.99702020  0.00129840  0.74775610    -0.50460
C354        C  0.00269732  0.09170550  0.67859825     0.42080
H355        H  0.07486683  0.44951653  0.81126538     0.06290
N356        N  0.47512380  0.08170885  0.80082970    -0.47170
C357        C  0.99590039  0.18066124  0.58536999     0.41930
N358        N  0.00862964  0.21849410  0.55892501     0.00820
C359        C  0.41902129  0.30568421  0.96921025    -0.07060
H360        H  0.41694948  0.18986496  0.94547765     0.06310
C361        C  0.02568367  0.19670065  0.91971563    -0.07410
Co362      Co  0.45636224  0.25079492  0.53386049     0.74180
N363        N  0.43671159  0.21785026  0.97926144    -0.26590
Co364      Co  0.46017382  0.25104368  0.95658856     0.74070
C365        C  0.99960579  0.18139322  0.90822540     0.42030
N366        N  0.05922413  0.21956339  0.98511855     0.00430
N367        N  0.48556494  0.21862811  0.93476951     0.00540
N368        N  0.41643045  0.30439299  0.51970299    -0.47440
H369        H  0.44619115  0.19044829  0.57795380     0.06290
N370        N  0.43561180  0.21765679  0.50868964     0.00820
N371        N  0.48472325  0.28431089  0.93511810     0.00560
C372        C  0.49786204  0.32168064  0.90848524     0.42170
N373        N  0.05743295  0.21961284  0.51451894    -0.26050
C374        C  0.46784525  0.30631229  0.57484284    -0.06970
N375        N  0.01937512  0.19656493  0.57549574    -0.47150
N376        N  0.47413509  0.30613984  0.91823333    -0.47380
C377        C  0.49408762  0.32043294  0.58759901     0.41940
N378        N  0.43406561  0.28314549  0.50908095     0.00810
N379        N  0.05629733  0.28481150  0.51510656    -0.26070
N380        N  0.47943887  0.21838679  0.55773454    -0.26560
N381        N  0.05828971  0.28493891  0.98570963     0.00450
H382        H  0.07455967  0.31295317  0.54953746     0.06340
H383        H  0.04738926  0.31252913  0.91640657     0.06370
N384        N  0.43576151  0.28327952  0.97964679    -0.26610
N385        N  0.01479606  0.21926431  0.93616351    -0.26220
N386        N  0.00771952  0.28388947  0.55985339     0.00810
C387        C  0.40999247  0.17920749  0.99555970     0.42210
C388        C  0.07451050  0.19762164  0.52514438    -0.07470
N389        N  0.01396898  0.28442356  0.93650469    -0.26220
H390        H  0.04889079  0.19181493  0.91612813     0.06360
N391        N  0.41976145  0.19518107  0.51928234    -0.47440
H392        H  0.07783849  0.19271762  0.54854826     0.06350
C393        C  0.08550825  0.32173411  0.99992748     0.42050
C394        C  0.46929239  0.19549340  0.57406789    -0.06970
Co395      Co  0.03290999  0.25171022  0.53759778     0.73820
N396        N  0.07727089  0.19851760  0.97474722    -0.47160
C397        C  0.40658200  0.31986474  0.99584182     0.42310
N398        N  0.01797954  0.30525042  0.57765963    -0.47150
Co399      Co  0.03707383  0.25206446  0.96035769     0.73890
C400        C  0.02430310  0.30713118  0.92004125    -0.07480
C401        C  0.42078558  0.19467251  0.96883131    -0.07040
N402        N  0.47851372  0.28378185  0.55810870    -0.26570
N403        N  0.47549469  0.19640053  0.91790134    -0.47330
H404        H  0.41537815  0.31078580  0.94590179     0.06320
C405        C  0.07227704  0.30755552  0.52609740    -0.07450
Cl406      Cl  0.49662574  0.25145057  0.99709364    -0.50460
C407        C  0.08763415  0.18349759  0.99872521     0.42080
H408        H  0.44468214  0.31137268  0.57850534     0.06290
N409        N  0.07560639  0.30663498  0.97566881    -0.47170
C410        C  0.31272035  0.40748109  0.99537354     0.41930
N411        N  0.27774941  0.43697583  0.50862367     0.00820
C412        C  0.19402589  0.03090327  0.91971922    -0.07060
H413        H  0.30894298  0.05412120  0.91997199     0.06310
C414        C  0.30265311  0.07599638  0.53002341    -0.07410
Co415      Co  0.24781374  0.46499253  0.95631018     0.74180
N416        N  0.28108260  0.01972826  0.93853282    -0.26590
Co417      Co  0.24836334  0.04255877  0.96248390     0.74070
C418        C  0.31716199  0.08991671  0.00435955     0.42030
N419        N  0.27816085  0.01000649  0.56159787     0.00430
N420        N  0.28049955  0.06323679  0.98904905     0.00540
N421        N  0.19548777  0.48046444  0.91686454    -0.47440
H422        H  0.30612889  0.41841578  0.94557007     0.06290
N423        N  0.28119320  0.49025436  0.93620420     0.00820
N424        N  0.21588535  0.06450341  0.98770881     0.00560
C425        C  0.18064144  0.09350729  0.00238533     0.42170
N426        N  0.27768551  0.48059349  0.55898583    -0.26050
C427        C  0.19138403  0.42524987  0.96604991    -0.06970
N428        N  0.29760985  0.41796100  0.51921304    -0.47150
N429        N  0.19545523  0.08347054  0.97799536    -0.47380
C430        C  0.17547615  0.41381113  0.99216868     0.41940
N431        N  0.21650071  0.49096639  0.93456866     0.00810
N432        N  0.21301460  0.48204121  0.55727830    -0.26070
N433        N  0.27882804  0.43943613  0.97927623    -0.26560
N434        N  0.21342791  0.01141428  0.56004429     0.00450
H435        H  0.18450933  0.44785317  0.57505966     0.06340
H436        H  0.18809179  0.07993965  0.55160917     0.06370
N437        N  0.21626803  0.02042584  0.93674632    -0.26610
N438        N  0.28004577  0.06038716  0.51836831    -0.26220
N439        N  0.21321457  0.43922927  0.50678537     0.00810
C440        C  0.31841585  0.50438309  0.90986468     0.42210
C441        C  0.29962874  0.46912478  0.57557212    -0.07470
N442        N  0.21548590  0.06162115  0.51701731    -0.26220
H443        H  0.30778079  0.07755277  0.55355179     0.06360
N444        N  0.30289342  0.48015762  0.91889262    -0.47440
H445        H  0.30467581  0.44557990  0.57760366     0.06350
C446        C  0.17584924  0.99760852  0.58597565     0.42050
C447        C  0.30056418  0.42182768  0.96884913    -0.06970
Co448      Co  0.24543764  0.45922535  0.53329367     0.73820
N449        N  0.29940549  0.01962631  0.57966045    -0.47160
C450        C  0.18032661  0.00413751  0.90638761     0.42310
N451        N  0.19068908  0.42307357  0.51646371    -0.47150
Co452      Co  0.24679997  0.03625002  0.53974083     0.73890
C453        C  0.19359948  0.07842567  0.52819399    -0.07480
C454        C  0.30377363  0.03064897  0.92268839    -0.07040
N455        N  0.21419063  0.44094471  0.97741147    -0.26570
N456        N  0.30231667  0.08069738  0.97974726    -0.47330
H457        H  0.18867875  0.05426863  0.91653893     0.06320
C458        C  0.19007086  0.47127717  0.57280198    -0.07450
Cl459      Cl  0.24715334  0.00077458  0.99794655    -0.50460
C460        C  0.31377857  0.49510159  0.58962932     0.42080
H461        H  0.18700106  0.42193114  0.94252956     0.06290
N462        N  0.19185150  0.02166415  0.57739624    -0.47170
C463        C  0.33654269  0.38493609  0.99643986    -0.06650
C464        C  0.36119871  0.38898586  0.97790290    -0.17780
C465        C  0.38489547  0.36887870  0.97824032     0.10540
C466        C  0.38380992  0.34356664  0.99699570    -0.06580
C467        C  0.35936404  0.33975342  0.51598141    -0.17820
C468        C  0.33555556  0.35986323  0.51558551     0.10570
S469        S  0.41636036  0.37770060  0.95524604    -0.32780
S470        S  0.30378853  0.35102242  0.53832792    -0.32790
H471        H  0.28274822  0.35989049  0.51690707     0.28580
H472        H  0.43757735  0.36609578  0.97511434     0.28580
H473        H  0.36236947  0.40841353  0.96355575     0.19170
H474        H  0.35814384  0.32022172  0.53019762     0.19180
C475        C  0.38832161  0.15427933  0.99805453    -0.06650
C476        C  0.37075819  0.15319123  0.52393609    -0.17780
C477        C  0.34755523  0.13268467  0.52687528     0.10540
C478        C  0.34192864  0.11178028  0.00367873    -0.06580
C479        C  0.36023884  0.11205807  0.97829106    -0.17820
C480        C  0.38355706  0.13256166  0.97543229     0.10570
S481        S  0.32473201  0.13666523  0.55965010    -0.32780
S482        S  0.40715571  0.12836402  0.94325576    -0.32790
H483        H  0.43327737  0.13542188  0.95892030     0.28580
H484        H  0.29792985  0.13533146  0.54361533     0.28580
H485        H  0.37410430  0.16950379  0.54160557     0.19170
H486        H  0.35667706  0.09576059  0.96063874     0.19180
C487        C  0.10809040  0.34578802  0.99884137    -0.06650
C488        C  0.10768078  0.36560948  0.97454157    -0.17780
C489        C  0.12857809  0.38869654  0.97195542     0.10540
C490        C  0.15117304  0.39155658  0.99369334    -0.06580
C491        C  0.15137588  0.37185609  0.51802387    -0.17820
C492        C  0.13039662  0.34900040  0.52084013     0.10570
S493        S  0.12408183  0.41435198  0.94132267    -0.32780
S494        S  0.13471128  0.32272285  0.55114192    -0.32790
H495        H  0.15548281  0.33929606  0.56784388     0.28580
H496        H  0.13251019  0.43986502  0.95780165     0.28580
H497        H  0.09051158  0.36349275  0.95772053     0.19170
H498        H  0.16887557  0.37364280  0.53447949     0.19180
C499        C  0.11168308  0.16071893  0.99843629    -0.06650
C500        C  0.12926771  0.15801589  0.52414439    -0.17780
C501        C  0.15216803  0.13695337  0.52607069     0.10540
C502        C  0.15734373  0.11708743  0.00183200    -0.06580
C503        C  0.14007273  0.12008306  0.97586146    -0.17820
C504        C  0.11768348  0.14176503  0.97376630     0.10570
S505        S  0.17584025  0.13829762  0.55865069    -0.32780
S506        S  0.09697273  0.14332779  0.93945811    -0.32790
H507        H  0.10743624  0.17215369  0.93250941     0.28580
H508        H  0.15728992  0.15604615  0.57674717     0.28580
H509        H  0.12578635  0.17325957  0.54261956     0.19170
H510        H  0.14395694  0.10532331  0.95699155     0.19180
C511        C  0.38203976  0.50589884  0.83781283    -0.06650
C512        C  0.38148942  0.48152681  0.85757544    -0.17780
C513        C  0.36154715  0.48053884  0.88162993     0.10540
C514        C  0.34131893  0.50435137  0.88607665    -0.06580
C515        C  0.34179221  0.02853388  0.86619182    -0.17820
C516        C  0.36121587  0.02927070  0.84190612     0.10570
S517        S  0.36386207  0.44883201  0.90629360    -0.32780
S518        S  0.35600030  0.05936479  0.81575112    -0.32790
H519        H  0.35965935  0.04110604  0.79031039     0.28580
H520        H  0.35840384  0.46534089  0.93256522     0.28580
H521        H  0.39720045  0.46339746  0.85470286     0.19170
H522        H  0.32584588  0.04649504  0.86863436     0.19180
C523        C  0.15539264  0.00217053  0.88468455    -0.06650
C524        C  0.13638165  0.02686923  0.88160691    -0.17780
C525        C  0.11285661  0.02655015  0.86117225     0.10540
C526        C  0.10784974  0.50095921  0.84315020    -0.06580
C527        C  0.12639205  0.47604298  0.84667528    -0.17820
C528        C  0.15002084  0.47622970  0.86701864     0.10570
S529        S  0.08918498  0.05893152  0.86013828    -0.32780
S530        S  0.17363372  0.44349303  0.86848446    -0.32790
H531        H  0.15580436  0.42436229  0.85106045     0.28580
H532        H  0.10106065  0.06862821  0.83276490     0.28580
H533        H  0.13967468  0.04661541  0.89531506     0.19170
H534        H  0.12300144  0.45656551  0.83268012     0.19180
C535        C  0.15266683  0.99766431  0.60947063    -0.06650
C536        C  0.15009525  0.47212694  0.62739166    -0.17780
C537        C  0.13058225  0.47107538  0.65153499     0.10540
C538        C  0.11164084  0.99570084  0.65746256    -0.06580
C539        C  0.11419884  0.02136794  0.63955634    -0.17820
C540        C  0.13432724  0.02262029  0.61570004     0.10570
S541        S  0.13362645  0.43866907  0.67514549    -0.32780
S542        S  0.13476570  0.05633805  0.59372226    -0.32790
H543        H  0.13796813  0.04140679  0.56616338     0.28580
H544        H  0.13271628  0.45533919  0.70188705     0.28580
H545        H  0.16458425  0.45315783  0.62367020     0.19170
H546        H  0.09999311  0.04048097  0.64379281     0.19180
C547        C  0.38687502  0.00114955  0.65167242    -0.06650
C548        C  0.36778830  0.47629329  0.65234908    -0.17780
C549        C  0.34371929  0.47370594  0.63282892     0.10540
C550        C  0.33874022  0.49610742  0.61116729    -0.06580
C551        C  0.35817359  0.02065393  0.60999465    -0.17820
C552        C  0.38235016  0.02319057  0.62950952     0.10570
S553        S  0.31910404  0.44253471  0.63876769    -0.32780
S554        S  0.40723095  0.05413335  0.62352443    -0.32790
H555        H  0.43304956  0.03773764  0.63001625     0.28580
H556        H  0.29311470  0.45965141  0.63567052     0.28580
H557        H  0.37076545  0.45921462  0.66920548     0.19170
H558        H  0.35492275  0.03774572  0.59318807     0.19180
C559        C  0.99913261  0.15797090  0.88526245    -0.06650
C560        C  0.00361258  0.16643730  0.85552245    -0.17780
C561        C  0.00286530  0.14524774  0.83248285     0.10540
C562        C  0.49772941  0.11491459  0.83940347    -0.06580
C563        C  0.49319340  0.10641526  0.86914632    -0.17820
C564        C  0.49418301  0.12761637  0.89224467     0.10570
S565        S  0.00906935  0.15826732  0.79488896    -0.32780
S566        S  0.48968511  0.11442090  0.93000914    -0.32790
H567        H  0.50627844  0.13707605  0.94407546     0.28580
H568        H  0.99129268  0.13677747  0.78049935     0.28580
H569        H  0.00753250  0.18975944  0.85021534     0.19170
H570        H  0.48963100  0.08304006  0.87445796     0.19180
C571        C  0.49220972  0.38798774  0.84003471    -0.06650
C572        C  0.48800309  0.39630586  0.86994390    -0.17780
C573        C  0.49089960  0.37531226  0.89288383     0.10540
C574        C  0.49670389  0.34510851  0.88563330    -0.06580
C575        C  0.00103225  0.33681263  0.85572799    -0.17820
C576        C  0.99901329  0.35795147  0.83285252     0.10570
S577        S  0.48836362  0.38877580  0.93082486    -0.32780
S578        S  0.00556523  0.34523274  0.79509644    -0.32790
H579        H  0.98670657  0.36590001  0.78108693     0.28580
H580        H  0.50618013  0.36659497  0.94386717     0.28580
H581        H  0.48357250  0.41951096  0.87552782     0.19170
H582        H  0.00584453  0.31368085  0.85016587     0.19180
C583        C  0.49489900  0.34364549  0.61092693    -0.06650
C584        C  0.48361069  0.37210607  0.60439575    -0.17780
C585        C  0.48481858  0.39526129  0.62555165     0.10540
C586        C  0.99696065  0.38962227  0.65404291    -0.06580
C587        C  0.00859446  0.36128139  0.66041099    -0.17820
C588        C  0.00731787  0.33813142  0.63932324     0.10570
S589        S  0.47149931  0.43167618  0.61457726    -0.32780
S590        S  0.02033325  0.30169707  0.65056615    -0.32790
H591        H  0.49916861  0.28528459  0.63422181     0.28580
H592        H  0.49078713  0.44824695  0.63299780     0.28580
H593        H  0.47437528  0.37647101  0.58248393     0.19170
H594        H  0.01757585  0.35679245  0.68240766     0.19180
C595        C  0.99800636  0.15638132  0.60767547    -0.06650
C596        C  0.02141184  0.15759195  0.62831697    -0.17780
C597        C  0.02342177  0.13723859  0.65185457     0.10540
C598        C  0.00204945  0.11422655  0.65448949    -0.06580
C599        C  0.47893975  0.11265250  0.63354385    -0.17820
C600        C  0.47690697  0.13306443  0.60998815     0.10570
S601        S  0.05227070  0.14379995  0.67895765    -0.32780
S602        S  0.44786824  0.12688041  0.58297098    -0.32790
H603        H  0.46492153  0.13571529  0.55821664     0.28580
H604        H  0.03399111  0.13832469  0.70381321     0.28580
H605        H  0.03758395  0.17546690  0.62700609     0.19170
H606        H  0.46267359  0.09490396  0.63513724     0.19180
C607        C  0.08903457  0.49558504  0.18160973     0.41930
N608        N  0.06046814  0.51108442  0.21686412     0.00820
C609        C  0.46594473  0.92439071  0.30258522    -0.07060
H610        H  0.44626845  0.92205861  0.18526006     0.06310
C611        C  0.42179522  0.53017305  0.19014174    -0.07410
Co612      Co  0.03255820  0.95996497  0.24939717     0.74180
N613        N  0.47925141  0.94051811  0.21512754    -0.26590
Co614      Co  0.45600629  0.96533081  0.24690710     0.74070
C615        C  0.40991424  0.50338385  0.17531445     0.42030
N616        N  0.48769024  0.56360679  0.21424153     0.00430
N617        N  0.43605711  0.99032072  0.21326749     0.00540
N618        N  0.01606760  0.92111988  0.30265560    -0.47440
H619        H  0.07604048  0.94637124  0.19049378     0.06290
N620        N  0.00837939  0.93804242  0.21627775     0.00820
N621        N  0.43357767  0.99125793  0.27857930     0.00560
C622        C  0.40469717  0.00627785  0.31374257     0.42170
N623        N  0.01684914  0.56135788  0.21501981    -0.26050
C624        C  0.07192965  0.97283929  0.30561517    -0.06970
N625        N  0.07899564  0.52037766  0.19586606    -0.47150
N626        N  0.41507574  0.98166193  0.29947528    -0.47380
C627        C  0.08440689  0.99963723  0.31988043     0.41940
N628        N  0.00643947  0.93902288  0.28127903     0.00810
N629        N  0.01499598  0.56236946  0.27993009    -0.26070
N630        N  0.05780379  0.98170489  0.21730944    -0.26560
N631        N  0.48578453  0.56415961  0.27945866     0.00450
H632        H  0.04832068  0.58280428  0.30802918     0.06340
H633        H  0.41671265  0.55571614  0.30498630     0.06370
N634        N  0.47724857  0.94108192  0.28047836    -0.26610
N635        N  0.43786646  0.51977566  0.21309955    -0.26220
N636        N  0.05820368  0.51252668  0.28201093     0.00810
C637        C  0.99576911  0.91189888  0.17824519     0.42210
C638        C  0.02833784  0.57800987  0.19306790    -0.07470
N639        N  0.43598581  0.52068033  0.27825788    -0.26220
H640        H  0.41818086  0.55356284  0.18532147     0.06360
N641        N  0.01917489  0.92060330  0.19488047    -0.47440
H642        H  0.05170716  0.58074748  0.18853453     0.06350
C643        C  0.49879950  0.59156218  0.31638696     0.42050
C644        C  0.07439229  0.96997125  0.19546709    -0.06970
Co645      Co  0.03814618  0.53726968  0.24837725     0.73790
N646        N  0.47828861  0.58154740  0.19276612    -0.47160
C647        C  0.49179832  0.91145523  0.31722033     0.42310
N648        N  0.07514127  0.52326718  0.30370797    -0.47150
Co649      Co  0.46141032  0.54258353  0.24625637     0.73890
C650        C  0.41901146  0.53215369  0.29999502    -0.07480
C651        C  0.46923011  0.92470784  0.19169100    -0.07040
N652        N  0.05606463  0.98308551  0.28247966    -0.26570
N653        N  0.41939232  0.97968492  0.19133859    -0.47330
H654        H  0.44264670  0.92084013  0.30702143     0.06320
C655        C  0.02526696  0.57924632  0.30246914    -0.07450
Cl656      Cl  0.99702019  0.50129838  0.24775609    -0.50460
C657        C  0.00269732  0.59170548  0.17859822     0.42080
H658        H  0.07486674  0.94951649  0.31126543     0.06290
N659        N  0.47512380  0.58170886  0.30082968    -0.47170
C660        C  0.99590039  0.68066125  0.08536999     0.41930
N661        N  0.00862965  0.71849411  0.05892501     0.00820
C662        C  0.41902131  0.80568419  0.46921025    -0.07060
H663        H  0.41694950  0.68986494  0.44547765     0.06310
C664        C  0.02568360  0.69670055  0.41971566    -0.07410
Co665      Co  0.45636226  0.75079493  0.03386050     0.74180
N666        N  0.43671160  0.71785024  0.47926144    -0.26590
Co667      Co  0.46017384  0.75104366  0.45658855     0.74070
C668        C  0.99960572  0.68139312  0.40822545     0.42030
N669        N  0.05922410  0.71956335  0.48511852     0.00430
N670        N  0.48556496  0.71862809  0.43476951     0.00540
N671        N  0.41643047  0.80439300  0.01970301    -0.47440
H672        H  0.44619117  0.69044831  0.07795381     0.06290
N673        N  0.43561181  0.71765681  0.00868966     0.00820
N674        N  0.48472326  0.78431087  0.43511810     0.00560
C675        C  0.49786204  0.82168063  0.40848525     0.42170
N676        N  0.05743295  0.71961283  0.01451892    -0.26050
C677        C  0.46784528  0.80631231  0.07484284    -0.06970
N678        N  0.01937513  0.69656494  0.07549574    -0.47150
N679        N  0.47413510  0.80613983  0.41823333    -0.47380
C680        C  0.49408765  0.82043296  0.08759900     0.41940
N681        N  0.43406563  0.78314551  0.00908095     0.00810
N682        N  0.05629735  0.78481149  0.01510653    -0.26070
N683        N  0.47943888  0.71838681  0.05773454    -0.26560
N684        N  0.05828970  0.78493887  0.48570953     0.00450
H685        H  0.07455974  0.81295314  0.04953743     0.06340
H686        H  0.04738921  0.81252904  0.41640648     0.06370
N687        N  0.43576152  0.78327950  0.47964679    -0.26610
N688        N  0.01479601  0.71926423  0.43616351    -0.26220
N689        N  0.00771954  0.78388948  0.05985337     0.00810
C690        C  0.40999249  0.67920748  0.49555970     0.42210
C691        C  0.07451050  0.69762163  0.02514436    -0.07470
N692        N  0.01396894  0.78442349  0.43650463    -0.26220
H693        H  0.04889072  0.69181483  0.41612814     0.06360
N694        N  0.41976145  0.69518109  0.01928236    -0.47440
H695        H  0.07783850  0.69271762  0.04854824     0.06350
C696        C  0.08550837  0.82173398  0.49992732     0.42050
C697        C  0.46929241  0.69549341  0.07406790    -0.06970
Co698      Co  0.03291000  0.75171022  0.03759776     0.73820
N699        N  0.07727085  0.69851755  0.47474720    -0.47160
C700        C  0.40658203  0.81986473  0.49584182     0.42310
N701        N  0.01797956  0.80525044  0.07765960    -0.47150
Co702      Co  0.03707379  0.75206441  0.46035765     0.73890
C703        C  0.02430305  0.80713110  0.42004117    -0.07480
C704        C  0.42078560  0.69467250  0.46883131    -0.07040
N705        N  0.47851375  0.78378186  0.05810870    -0.26570
N706        N  0.47549471  0.69640052  0.41790134    -0.47330
H707        H  0.41537817  0.81078578  0.44590179     0.06320
C708        C  0.07227708  0.80755549  0.02609736    -0.07450
Cl709      Cl  0.49662575  0.75145056  0.49709364    -0.50460
C710        C  0.08763414  0.68349756  0.49872519     0.42080
H711        H  0.44468217  0.81137270  0.07850533     0.06290
N712        N  0.07560644  0.80663488  0.47566867    -0.47170
C713        C  0.31272040  0.90748111  0.49537356     0.41930
N714        N  0.27774941  0.93697583  0.00862368     0.00820
C715        C  0.19402590  0.53090328  0.41971920    -0.07060
H716        H  0.30894297  0.55412120  0.41997199     0.06310
C717        C  0.30265313  0.57599638  0.03002341    -0.07410
Co718      Co  0.24781375  0.96499251  0.45631021     0.74180
N719        N  0.28108260  0.51972826  0.43853281    -0.26590
Co720      Co  0.24836334  0.54255877  0.46248389     0.74070
C721        C  0.31716199  0.58991671  0.50435954     0.42030
N722        N  0.27816085  0.51000649  0.06159785     0.00430
N723        N  0.28049955  0.56323679  0.48904903     0.00540
N724        N  0.19548773  0.98046438  0.41686462    -0.47440
H725        H  0.30612892  0.91841579  0.44557010     0.06290
N726        N  0.28119320  0.99025436  0.43620421     0.00820
N727        N  0.21588536  0.56450341  0.48770880     0.00560
C728        C  0.18064144  0.59350729  0.50238531     0.42170
N729        N  0.27768551  0.98059349  0.05898584    -0.26050
C730        C  0.19138409  0.92524979  0.46604994    -0.06970
N731        N  0.29760986  0.91796100  0.01921305    -0.47150
N732        N  0.19545523  0.58347054  0.47799534    -0.47380
C733        C  0.17547626  0.91381100  0.49216870     0.41940
N734        N  0.21650070  0.99096635  0.43456870     0.00810
N735        N  0.21301460  0.98204120  0.05727830    -0.26070
N736        N  0.27882808  0.93943613  0.47927626    -0.26560
N737        N  0.21342791  0.51141430  0.06004427     0.00450
H738        H  0.18450932  0.94785316  0.07505964     0.06340
H739        H  0.18809180  0.57993966  0.05160914     0.06370
N740        N  0.21626803  0.52042585  0.43674631    -0.26610
N741        N  0.28004579  0.56038716  0.01836831    -0.26220
N742        N  0.21321458  0.93922925  0.00678538     0.00810
C743        C  0.31841583  0.00438311  0.40986469     0.42210
C744        C  0.29962874  0.96912477  0.07557213    -0.07470
N745        N  0.21548592  0.56162117  0.01701729    -0.26220
H746        H  0.30778080  0.57755276  0.05355179     0.06360
N747        N  0.30289342  0.98015763  0.41889263    -0.47440
H748        H  0.30467581  0.94557990  0.07760367     0.06350
C749        C  0.17584923  0.49760855  0.08597561     0.42050
C750        C  0.30056422  0.92182769  0.46884915    -0.06970
Co751      Co  0.24543764  0.95922534  0.03329368     0.73820
N752        N  0.29940549  0.51962629  0.07966043    -0.47160
C753        C  0.18032662  0.50413752  0.40638758     0.42310
N754        N  0.19068910  0.92307353  0.01646372    -0.47150
Co755      Co  0.24679998  0.53625003  0.03974082     0.73890
C756        C  0.19359951  0.57842569  0.02819397    -0.07480
C757        C  0.30377362  0.53064897  0.42268838    -0.07040
N758        N  0.21419067  0.94094466  0.47741151    -0.26570
N759        N  0.30231667  0.58069738  0.47974724    -0.47330
H760        H  0.18867876  0.55426864  0.41653890     0.06320
C761        C  0.19007086  0.97127716  0.07280197    -0.07450
Cl762      Cl  0.24715334  0.50077458  0.49794654    -0.50460
C763        C  0.31377857  0.99510159  0.08962932     0.42080
H764        H  0.18700111  0.92193106  0.44252959     0.06290
N765        N  0.19185149  0.52166418  0.07739623    -0.47170
C766        C  0.33654274  0.88493611  0.49643988    -0.06650
C767        C  0.36119874  0.88898585  0.47790288    -0.17780
C768        C  0.38489549  0.86887868  0.47824030     0.10540
C769        C  0.38380995  0.84356664  0.49699569    -0.06580
C770        C  0.35936404  0.83975341  0.01598140    -0.17820
C771        C  0.33555555  0.85986322  0.01558550     0.10570
S772        S  0.41636036  0.87770055  0.45524597    -0.32780
S773        S  0.30378851  0.85102238  0.03832787    -0.32790
H774        H  0.28274821  0.85989048  0.01690701     0.28580
H775        H  0.43757737  0.86609575  0.47511426     0.28580
H776        H  0.36236949  0.90841351  0.46355572     0.19170
H777        H  0.35814383  0.82022170  0.03019759     0.19180
C778        C  0.38832162  0.65427932  0.49805453    -0.06650
C779        C  0.37075819  0.65319125  0.02393610    -0.17780
C780        C  0.34755524  0.63268468  0.02687529     0.10540
C781        C  0.34192864  0.61178028  0.50367872    -0.06580
C782        C  0.36023884  0.61205806  0.47829105    -0.17820
C783        C  0.38355706  0.63256166  0.47543228     0.10570
S784        S  0.32473200  0.63666524  0.05965010    -0.32780
S785        S  0.40715571  0.62836402  0.44325575    -0.32790
H786        H  0.43327737  0.63542187  0.45892029     0.28580
H787        H  0.29792984  0.63533146  0.04361531     0.28580
H788        H  0.37410429  0.66950381  0.04160558     0.19170
H789        H  0.35667706  0.59576059  0.46063872     0.19180
C790        C  0.10809060  0.84578780  0.49884119    -0.06650
C791        C  0.10768078  0.86560953  0.47454161    -0.17780
C792        C  0.12857809  0.88869660  0.47195554     0.10540
C793        C  0.15117322  0.89155637  0.49369330    -0.06580
C794        C  0.15137599  0.87185596  0.01802379    -0.17820
C795        C  0.13039673  0.84900026  0.02084003     0.10570
S796        S  0.12408160  0.91435239  0.44132312    -0.32780
S797        S  0.13471145  0.82272260  0.05114172    -0.32790
H798        H  0.15548310  0.83929570  0.06784364     0.28580
H799        H  0.13251021  0.93986523  0.45780228     0.28580
H800        H  0.09051141  0.86349302  0.45772072     0.19170
H801        H  0.16887572  0.87364262  0.03447937     0.19180
C802        C  0.11168307  0.66071891  0.49843627    -0.06650
C803        C  0.12926770  0.65801588  0.02414438    -0.17780
C804        C  0.15216803  0.63695337  0.02607068     0.10540
C805        C  0.15734373  0.61708743  0.50183198    -0.06580
C806        C  0.14007271  0.62008302  0.47586146    -0.17820
C807        C  0.11768344  0.64176498  0.47376629     0.10570
S808        S  0.17584022  0.63829760  0.05865070    -0.32780
S809        S  0.09697265  0.64332769  0.43945813    -0.32790
H810        H  0.10743615  0.67215358  0.43250938     0.28580
H811        H  0.15728986  0.65604608  0.07674719     0.28580
H812        H  0.12578632  0.67325955  0.04261957     0.19170
H813        H  0.14395689  0.60532325  0.45699156     0.19180
C814        C  0.38203976  0.00589888  0.33781286    -0.06650
C815        C  0.38148940  0.98152683  0.35757545    -0.17780
C816        C  0.36154713  0.98053886  0.38162994     0.10540
C817        C  0.34131892  0.00435139  0.38607666    -0.06580
C818        C  0.34179220  0.52853389  0.36619181    -0.17820
C819        C  0.36121586  0.52927072  0.34190611     0.10570
S820        S  0.36386203  0.94883201  0.40629358    -0.32780
S821        S  0.35600029  0.55936481  0.31575113    -0.32790
H822        H  0.35965934  0.54110606  0.29031039     0.28580
H823        H  0.35840383  0.96534088  0.43256521     0.28580
H824        H  0.39720043  0.96339749  0.35470285     0.19170
H825        H  0.32584587  0.54649505  0.36863435     0.19180
C826        C  0.15539265  0.50217054  0.38468452    -0.06650
C827        C  0.13638162  0.52686921  0.38160694    -0.17780
C828        C  0.11285657  0.52655013  0.36117228     0.10540
C829        C  0.10784965  0.00095916  0.34315030    -0.06580
C830        C  0.12639178  0.97604281  0.34667560    -0.17820
C831        C  0.15002054  0.97622951  0.36701900     0.10570
S832        S  0.08918487  0.55893145  0.36013838    -0.32780
S833        S  0.17363312  0.94349263  0.36848512    -0.32790
H834        H  0.15580352  0.92436185  0.35106140     0.28580
H835        H  0.10106050  0.56862822  0.33276502     0.28580
H836        H  0.13967462  0.54661537  0.39531512     0.19170
H837        H  0.12300105  0.95656526  0.33268058     0.19180
C838        C  0.15266680  0.49766432  0.10947059    -0.06650
C839        C  0.15009517  0.97212688  0.12739159    -0.17780
C840        C  0.13058217  0.97107530  0.15153492     0.10540
C841        C  0.11164079  0.49570079  0.15746251    -0.06580
C842        C  0.11419890  0.52136797  0.13955641    -0.17820
C843        C  0.13432730  0.52262035  0.11570011     0.10570
S844        S  0.13362630  0.93866892  0.17514533    -0.32780
S845        S  0.13476591  0.55633822  0.09372250    -0.32790
H846        H  0.13796821  0.54140707  0.06616355     0.28580
H847        H  0.13271622  0.95533898  0.20188694     0.28580
H848        H  0.16458413  0.95315775  0.12367009     0.19170
H849        H  0.09999325  0.54048104  0.14379297     0.19180
C850        C  0.38687501  0.50114953  0.15167240    -0.06650
C851        C  0.36778830  0.97629328  0.15234909    -0.17780
C852        C  0.34371930  0.97370594  0.13282893     0.10540
C853        C  0.33874022  0.99610742  0.11116729    -0.06580
C854        C  0.35817358  0.52065390  0.10999463    -0.17820
C855        C  0.38235015  0.52319054  0.12950950     0.10570
S856        S  0.31910404  0.94253471  0.13876770    -0.32780
S857        S  0.40723093  0.55413333  0.12352441    -0.32790
H858        H  0.43304955  0.53773762  0.13001624     0.28580
H859        H  0.29311471  0.95965141  0.13567053     0.28580
H860        H  0.37076546  0.95921462  0.16920549     0.19170
H861        H  0.35492274  0.53774570  0.09318806     0.19180
C862        C  0.99913254  0.65797082  0.38526248    -0.06650
C863        C  0.00361249  0.66643724  0.35552249    -0.17780
C864        C  0.00286522  0.64524771  0.33248287     0.10540
C865        C  0.49772941  0.61491460  0.33940345    -0.06580
C866        C  0.49319339  0.60641526  0.36914630    -0.17820
C867        C  0.49418301  0.62761637  0.39224466     0.10570
S868        S  0.00906925  0.65826733  0.29488899    -0.32780
S869        S  0.48968510  0.61442089  0.43000912    -0.32790
H870        H  0.50627844  0.63707603  0.44407545     0.28580
H871        H  0.99129261  0.63677747  0.28049937     0.28580
H872        H  0.00753237  0.68975940  0.35021540     0.19170
H873        H  0.48963098  0.58304006  0.37445794     0.19180
C874        C  0.49220970  0.88798776  0.34003474    -0.06650
C875        C  0.48800310  0.89630587  0.36994394    -0.17780
C876        C  0.49089962  0.87531226  0.39288386     0.10540
C877        C  0.49670389  0.84510851  0.38563331    -0.06580
C878        C  0.00103214  0.83681256  0.35572792    -0.17820
C879        C  0.99901318  0.85795142  0.33285247     0.10570
S880        S  0.48836367  0.88877579  0.43082490    -0.32780
S881        S  0.00556506  0.84523271  0.29509638    -0.32790
H882        H  0.98670643  0.86590002  0.28108690     0.28580
H883        H  0.50618018  0.86659495  0.44386718     0.28580
H884        H  0.48357253  0.91951097  0.37552786     0.19170
H885        H  0.00584439  0.81368079  0.35016578     0.19180
C886        C  0.49489903  0.84364550  0.11092693    -0.06650
C887        C  0.48361071  0.87210608  0.10439576    -0.17780
C888        C  0.48481859  0.89526129  0.12555168     0.10540
C889        C  0.99696064  0.88962227  0.15404290    -0.06580
C890        C  0.00859446  0.86128140  0.16041098    -0.17820
C891        C  0.00731789  0.83813143  0.13932321     0.10570
S892        S  0.47149931  0.93167619  0.11457729    -0.32780
S893        S  0.02033327  0.80169708  0.15056612    -0.32790
H894        H  0.49916864  0.78528460  0.13422179     0.28580
H895        H  0.49078712  0.94824695  0.13299785     0.28580
H896        H  0.47437531  0.87647103  0.08248393     0.19170
H897        H  0.01757584  0.85679245  0.18240765     0.19180
C898        C  0.99800637  0.65638133  0.10767546    -0.06650
C899        C  0.02141186  0.65759194  0.12831696    -0.17780
C900        C  0.02342179  0.63723857  0.15185455     0.10540
C901        C  0.00204947  0.61422653  0.15448947    -0.06580
C902        C  0.47893975  0.61265250  0.13354383    -0.17820
C903        C  0.47690698  0.63306444  0.10998814     0.10570
S904        S  0.05227073  0.64379990  0.17895761    -0.32780
S905        S  0.44786823  0.62688044  0.08297098    -0.32790
H906        H  0.46492152  0.63571531  0.05821664     0.28580
H907        H  0.03399115  0.63832465  0.20381318     0.28580
H908        H  0.03758398  0.67546688  0.12700607     0.19170
H909        H  0.46267359  0.59490397  0.13513723     0.19180
C910        C  0.08903461  0.49558510  0.68160975     0.41930
N911        N  0.06046815  0.51108446  0.71686411     0.00820
C912        C  0.46594475  0.92439070  0.80258519    -0.07060
H913        H  0.44626847  0.92205862  0.68526005     0.06310
C914        C  0.42179521  0.53017305  0.69014175    -0.07410
Co915      Co  0.03255821  0.95996498  0.74939716     0.74180
N916        N  0.47925143  0.94051813  0.71512752    -0.26590
Co917      Co  0.45600631  0.96533081  0.74690708     0.74070
C918        C  0.40991424  0.50338385  0.67531445     0.42030
N919        N  0.48769022  0.56360680  0.71424154     0.00430
N920        N  0.43605712  0.99032073  0.71326749     0.00540
N921        N  0.01606763  0.92111988  0.80265559    -0.47440
H922        H  0.07604053  0.94637127  0.69049378     0.06290
N923        N  0.00837940  0.93804242  0.71627774     0.00820
N924        N  0.43357769  0.99125792  0.77857929     0.00560
C925        C  0.40469718  0.00627782  0.81374256     0.42170
N926        N  0.01684915  0.56135791  0.71501981    -0.26050
C927        C  0.07192969  0.97283930  0.80561514    -0.06970
N928        N  0.07899565  0.52037771  0.69586606    -0.47150
N929        N  0.41507575  0.98166191  0.79947527    -0.47380
C930        C  0.08440692  0.99963725  0.81988039     0.41940
N931        N  0.00643949  0.93902288  0.78127901     0.00810
N932        N  0.01499599  0.56236949  0.77993009    -0.26070
N933        N  0.05780380  0.98170491  0.71730943    -0.26560
N934        N  0.48578451  0.56415960  0.77945868     0.00450
H935        H  0.04832069  0.58280432  0.80802916     0.06340
H936        H  0.41671264  0.55571611  0.80498630     0.06370
N937        N  0.47724859  0.94108191  0.78047833    -0.26610
N938        N  0.43786646  0.51977566  0.71309955    -0.26220
N939        N  0.05820369  0.51252671  0.78201092     0.00810
C940        C  0.99576913  0.91189889  0.67824517     0.42210
C941        C  0.02833784  0.57800991  0.69306791    -0.07470
N942        N  0.43598581  0.52068031  0.77825789    -0.26220
H943        H  0.41818085  0.55356284  0.68532148     0.06360
N944        N  0.01917491  0.92060331  0.69488045    -0.47440
H945        H  0.05170716  0.58074753  0.68853454     0.06350
C946        C  0.49879947  0.59156216  0.81638698     0.42050
C947        C  0.07439232  0.96997128  0.69546709    -0.06970
Co948      Co  0.03814619  0.53726971  0.74837725     0.73790
N949        N  0.47828859  0.58154740  0.69276614    -0.47160
C950        C  0.49179834  0.91145520  0.81722029     0.42310
N951        N  0.07514129  0.52326721  0.80370796    -0.47150
Co952      Co  0.46141031  0.54258352  0.74625638     0.73890
C953        C  0.41901146  0.53215367  0.79999502    -0.07480
C954        C  0.46923013  0.92470785  0.69169098    -0.07040
N955        N  0.05606465  0.98308552  0.78247965    -0.26570
N956        N  0.41939234  0.97968493  0.69133859    -0.47330
H957        H  0.44264672  0.92084011  0.80702140     0.06320
C958        C  0.02526698  0.57924636  0.80246913    -0.07450
Cl959      Cl  0.99702020  0.50129841  0.74775609    -0.50460
C960        C  0.00269733  0.59170552  0.67859823     0.42080
H961        H  0.07486681  0.94951650  0.81126539     0.06290
N962        N  0.47512378  0.58170884  0.80082969    -0.47170
C963        C  0.99590041  0.68066130  0.58537001     0.41930
N964        N  0.00862967  0.71849415  0.55892501     0.00820
C965        C  0.41902130  0.80568421  0.96921025    -0.07060
H966        H  0.41694948  0.68986495  0.94547767     0.06310
C967        C  0.02568365  0.69670063  0.91971564    -0.07410
Co968      Co  0.45636226  0.75079491  0.53386049     0.74180
N969        N  0.43671159  0.71785026  0.97926146    -0.26590
Co970      Co  0.46017382  0.75104367  0.95658856     0.74070
C971        C  0.99960578  0.68139320  0.90822542     0.42030
N972        N  0.05922412  0.71956339  0.98511855     0.00430
N973        N  0.48556493  0.71862809  0.93476952     0.00540
N974        N  0.41643048  0.80439299  0.51970300    -0.47440
H975        H  0.44619116  0.69044828  0.57795379     0.06290
N976        N  0.43561182  0.71765679  0.50868964     0.00820
N977        N  0.48472325  0.78431087  0.93511810     0.00560
C978        C  0.49786204  0.82168061  0.90848522     0.42170
N979        N  0.05743294  0.71961282  0.51451890    -0.26050
C980        C  0.46784527  0.80631228  0.57484285    -0.06970
N981        N  0.01937515  0.69656498  0.57549574    -0.47150
N982        N  0.47413509  0.80613982  0.91823331    -0.47380
C983        C  0.49408763  0.82043293  0.58759902     0.41940
N984        N  0.43406563  0.78314549  0.50908095     0.00810
N985        N  0.05629739  0.78481147  0.51510646    -0.26070
N986        N  0.47943888  0.71838678  0.55773453    -0.26560
N987        N  0.05828970  0.78493890  0.98570961     0.00450
H988        H  0.07455996  0.81295306  0.54953732     0.06340
H989        H  0.04738925  0.81252911  0.91640655     0.06370
N990        N  0.43576152  0.78327952  0.97964679    -0.26610
N991        N  0.01479605  0.71926429  0.93616352    -0.26220
N992        N  0.00771958  0.78388952  0.55985331     0.00810
C993        C  0.40999248  0.67920750  0.99555973     0.42210
C994        C  0.07451050  0.69762163  0.52514434    -0.07470
N995        N  0.01396897  0.78442355  0.93650468    -0.26220
H996        H  0.04889077  0.69181491  0.91612814     0.06360
N997        N  0.41976146  0.69518107  0.51928233    -0.47440
H998        H  0.07783851  0.69271763  0.54854823     0.06350
C999        C  0.08550827  0.82173408  0.99992745     0.42050
C1000       C  0.46929240  0.69549339  0.57406788    -0.06970
Co1001     Co  0.03291002  0.75171023  0.53759772     0.73820
N1002       N  0.07727088  0.69851759  0.97474722    -0.47160
C1003       C  0.40658202  0.81986474  0.99584182     0.42310
N1004       N  0.01797960  0.80525049  0.57765952    -0.47150
Co1005     Co  0.03707381  0.75206445  0.96035769     0.73890
C1006       C  0.02430308  0.80713116  0.92004124    -0.07480
C1007       C  0.42078559  0.69467251  0.96883133    -0.07040
N1008       N  0.47851374  0.78378184  0.55810871    -0.26570
N1009       N  0.47549468  0.69640051  0.91790136    -0.47330
H1010       H  0.41537816  0.81078579  0.94590179     0.06320
C1011       C  0.07227720  0.80755543  0.52609725    -0.07450
Cl1012     Cl  0.49662574  0.75145056  0.99709363    -0.50460
C1013       C  0.08763415  0.68349758  0.99872521     0.42080
H1014       H  0.44468216  0.81137268  0.57850534     0.06290
N1015       N  0.07560640  0.80663496  0.97566878    -0.47170
C1016       C  0.31272036  0.90748108  0.99537354     0.41930
N1017       N  0.27774945  0.93697584  0.50862371     0.00820
C1018       C  0.19402591  0.53090329  0.91971920    -0.07060
H1019       H  0.30894299  0.55412120  0.91997199     0.06310
C1020       C  0.30265313  0.57599637  0.53002340    -0.07410
Co1021     Co  0.24781374  0.96499252  0.95631019     0.74180
N1022       N  0.28108261  0.51972826  0.93853282    -0.26590
Co1023     Co  0.24836335  0.54255878  0.96248389     0.74070
C1024       C  0.31716199  0.58991671  0.00435956     0.42030
N1025       N  0.27816086  0.51000648  0.56159784     0.00430
N1026       N  0.28049956  0.56323679  0.98904905     0.00540
N1027       N  0.19548776  0.98046442  0.91686456    -0.47440
H1028       H  0.30612889  0.91841578  0.94557007     0.06290
N1029       N  0.28119320  0.99025435  0.93620420     0.00820
N1030       N  0.21588536  0.56450342  0.98770880     0.00560
C1031       C  0.18064145  0.59350731  0.00238532     0.42170
N1032       N  0.27768552  0.98059350  0.55898586    -0.26050
C1033       C  0.19138404  0.92524985  0.96604992    -0.06970
N1034       N  0.29760990  0.91796102  0.51921307    -0.47150
N1035       N  0.19545524  0.58347055  0.97799535    -0.47380
C1036       C  0.17547617  0.91381110  0.99216868     0.41940
N1037       N  0.21650071  0.99096638  0.93456867     0.00810
N1038       N  0.21301461  0.98204119  0.55727832    -0.26070
N1039       N  0.27882805  0.93943612  0.97927624    -0.26560
N1040       N  0.21342791  0.51141430  0.56004427     0.00450
H1041       H  0.18450934  0.94785315  0.57505969     0.06340
H1042       H  0.18809180  0.57993965  0.55160914     0.06370
N1043       N  0.21626804  0.52042586  0.93674631    -0.26610
N1044       N  0.28004579  0.56038716  0.51836829    -0.26220
N1045       N  0.21321462  0.93922921  0.50678541     0.00810
C1046       C  0.31841584  0.00438310  0.90986467     0.42210
C1047       C  0.29962875  0.96912480  0.57557215    -0.07470
N1048       N  0.21548592  0.56162116  0.51701729    -0.26220
H1049       H  0.30778080  0.57755276  0.55355177     0.06360
N1050       N  0.30289342  0.98015762  0.91889262    -0.47440
H1051       H  0.30467583  0.94557992  0.57760370     0.06350
C1052       C  0.17584924  0.49760854  0.58597563     0.42050
C1053       C  0.30056419  0.92182768  0.96884913    -0.06970
Co1054     Co  0.24543766  0.95922533  0.53329371     0.73820
N1055       N  0.29940549  0.51962629  0.57966043    -0.47160
C1056       C  0.18032663  0.50413754  0.90638758     0.42310
N1057       N  0.19068917  0.92307343  0.51646374    -0.47150
Co1058     Co  0.24679998  0.53625002  0.53974081     0.73890
C1059       C  0.19359950  0.57842568  0.52819397    -0.07480
C1060       C  0.30377364  0.53064897  0.92268839    -0.07040
N1061       N  0.21419064  0.94094469  0.97741148    -0.26570
N1062       N  0.30231668  0.58069738  0.97974726    -0.47330
H1063       H  0.18867878  0.55426865  0.91653890     0.06320
C1064       C  0.19007087  0.97127714  0.57280200    -0.07450
Cl1065     Cl  0.24715334  0.50077459  0.99794654    -0.50460
C1066       C  0.31377857  0.99510162  0.58962934     0.42080
H1067       H  0.18700107  0.92193112  0.94252957     0.06290
N1068       N  0.19185150  0.52166418  0.57739623    -0.47170
C1069       C  0.33654270  0.88493609  0.99643986    -0.06650
C1070       C  0.36119873  0.88898586  0.97790290    -0.17780
C1071       C  0.38489548  0.86887870  0.97824034     0.10540
C1072       C  0.38380993  0.84356664  0.99699570    -0.06580
C1073       C  0.35936409  0.83975344  0.51598144    -0.17820
C1074       C  0.33555561  0.85986326  0.51558555     0.10570
S1075       S  0.41636038  0.87770061  0.95524606    -0.32780
S1076       S  0.30378859  0.85102246  0.53832798    -0.32790
H1077       H  0.28274827  0.85989051  0.51690712     0.28580
H1078       H  0.43757737  0.86609578  0.97511436     0.28580
H1079       H  0.36236949  0.90841354  0.96355577     0.19170
H1080       H  0.35814389  0.82022175  0.53019765     0.19180
C1081       C  0.38832162  0.65427933  0.99805455    -0.06650
C1082       C  0.37075820  0.65319123  0.52393608    -0.17780
C1083       C  0.34755525  0.63268466  0.52687527     0.10540
C1084       C  0.34192864  0.61178028  0.00367875    -0.06580
C1085       C  0.36023885  0.61205806  0.97829108    -0.17820
C1086       C  0.38355708  0.63256166  0.97543231     0.10570
S1087       S  0.32473202  0.63666522  0.55965009    -0.32780
S1088       S  0.40715573  0.62836401  0.94325580    -0.32790
H1089       H  0.43327739  0.63542188  0.95892034     0.28580
H1090       H  0.29792986  0.63533145  0.54361531     0.28580
H1091       H  0.37410431  0.66950378  0.54160557     0.19170
H1092       H  0.35667708  0.59576058  0.96063876     0.19180
C1093       C  0.10809043  0.84578798  0.99884134    -0.06650
C1094       C  0.10768078  0.86560949  0.97454158    -0.17780
C1095       C  0.12857809  0.88869655  0.97195545     0.10540
C1096       C  0.15117308  0.89155653  0.99369333    -0.06580
C1097       C  0.15137633  0.87185555  0.51802355    -0.17820
C1098       C  0.13039709  0.84899983  0.52083972     0.10570
S1099       S  0.12408178  0.91435206  0.94132276    -0.32780
S1100       S  0.13471200  0.82272181  0.55114107    -0.32790
H1101       H  0.15548405  0.83929453  0.56784285     0.28580
H1102       H  0.13251020  0.93986506  0.95780178     0.28580
H1103       H  0.09051154  0.86349281  0.95772057     0.19170
H1104       H  0.16887619  0.87364205  0.53447901     0.19180
C1105       C  0.11168308  0.66071894  0.99843628    -0.06650
C1106       C  0.12926769  0.65801586  0.52414437    -0.17780
C1107       C  0.15216802  0.63695335  0.52607067     0.10540
C1108       C  0.15734375  0.61708745  0.00183199    -0.06580
C1109       C  0.14007272  0.62008305  0.97586146    -0.17820
C1110       C  0.11768346  0.64176501  0.97376630     0.10570
S1111       S  0.17584022  0.63829760  0.55865069    -0.32780
S1112       S  0.09697267  0.64332774  0.93945814    -0.32790
H1113       H  0.10743617  0.67215363  0.93250940     0.28580
H1114       H  0.15728986  0.65604610  0.57674717     0.28580
H1115       H  0.12578632  0.67325954  0.54261955     0.19170
H1116       H  0.14395691  0.60532329  0.95699156     0.19180
C1117       C  0.38203976  0.00589885  0.83781284    -0.06650
C1118       C  0.38148942  0.98152682  0.85757545    -0.17780
C1119       C  0.36154715  0.98053885  0.88162994     0.10540
C1120       C  0.34131893  0.00435137  0.88607665    -0.06580
C1121       C  0.34179221  0.52853387  0.86619181    -0.17820
C1122       C  0.36121586  0.52927069  0.84190611     0.10570
S1123       S  0.36386207  0.94883201  0.90629360    -0.32780
S1124       S  0.35600029  0.55936478  0.81575112    -0.32790
H1125       H  0.35965933  0.54110602  0.79031038     0.28580
H1126       H  0.35840384  0.96534089  0.93256522     0.28580
H1127       H  0.39720046  0.96339748  0.85470287     0.19170
H1128       H  0.32584588  0.54649504  0.86863436     0.19180
C1129       C  0.15539267  0.50217056  0.88468452    -0.06650
C1130       C  0.13638164  0.52686924  0.88160692    -0.17780
C1131       C  0.11285660  0.52655015  0.86117226     0.10540
C1132       C  0.10784971  0.00095919  0.84315023    -0.06580
C1133       C  0.12639199  0.97604293  0.84667536    -0.17820
C1134       C  0.15002077  0.97622965  0.86701873     0.10570
S1135       S  0.08918492  0.55893149  0.86013834    -0.32780
S1136       S  0.17363359  0.94349293  0.86848461    -0.32790
H1137       H  0.15580417  0.92436218  0.85106067     0.28580
H1138       H  0.10106056  0.56862824  0.83276498     0.28580
H1139       H  0.13967465  0.54661540  0.89531510     0.19170
H1140       H  0.12300135  0.95656544  0.83268023     0.19180
C1141       C  0.15266683  0.49766433  0.60947062    -0.06650
C1142       C  0.15009526  0.97212693  0.62739169    -0.17780
C1143       C  0.13058226  0.97107537  0.65153502     0.10540
C1144       C  0.11164084  0.49570085  0.65746254    -0.06580
C1145       C  0.11419885  0.52136796  0.63955634    -0.17820
C1146       C  0.13432725  0.52262032  0.61570004     0.10570
S1147       S  0.13362647  0.93866908  0.67514554    -0.32780
S1148       S  0.13476573  0.55633809  0.59372228    -0.32790
H1149       H  0.13796814  0.54140684  0.56616339     0.28580
H1150       H  0.13271628  0.95533922  0.70188710     0.28580
H1151       H  0.16458427  0.95315782  0.62367024     0.19170
H1152       H  0.09999313  0.54048100  0.64379282     0.19180
C1153       C  0.38687501  0.50114953  0.65167240    -0.06650
C1154       C  0.36778829  0.97629332  0.65234911    -0.17780
C1155       C  0.34371928  0.97370598  0.63282896     0.10540
C1156       C  0.33874022  0.99610745  0.61116732    -0.06580
C1157       C  0.35817358  0.52065390  0.60999463    -0.17820
C1158       C  0.38235014  0.52319055  0.62950951     0.10570
S1159       S  0.31910402  0.94253477  0.63876774    -0.32780
S1160       S  0.40723092  0.55413334  0.62352443    -0.32790
H1161       H  0.43304954  0.53773764  0.63001625     0.28580
H1162       H  0.29311469  0.95965148  0.63567055     0.28580
H1163       H  0.37076544  0.95921466  0.66920552     0.19170
H1164       H  0.35492274  0.53774571  0.59318807     0.19180
C1165       C  0.99913259  0.65797089  0.88526245    -0.06650
C1166       C  0.00361256  0.66643730  0.85552246    -0.17780
C1167       C  0.00286528  0.64524776  0.83248285     0.10540
C1168       C  0.49772938  0.61491458  0.83940348    -0.06580
C1169       C  0.49319337  0.60641524  0.86914632    -0.17820
C1170       C  0.49418299  0.62761635  0.89224468     0.10570
S1171       S  0.00906932  0.65826735  0.79488896    -0.32780
S1172       S  0.48968510  0.61442086  0.93000914    -0.32790
H1173       H  0.50627842  0.63707602  0.94407547     0.28580
H1174       H  0.99129267  0.63677750  0.78049935     0.28580
H1175       H  0.00753246  0.68975945  0.85021536     0.19170
H1176       H  0.48963098  0.58304004  0.87445796     0.19180
C1177       C  0.49220972  0.88798773  0.84003471    -0.06650
C1178       C  0.48800309  0.89630584  0.86994390    -0.17780
C1179       C  0.49089960  0.87531223  0.89288382     0.10540
C1180       C  0.49670389  0.84510849  0.88563328    -0.06580
C1181       C  0.00103223  0.83681260  0.85572798    -0.17820
C1182       C  0.99901327  0.85795144  0.83285250     0.10570
S1183       S  0.48836363  0.88877577  0.93082486    -0.32780
S1184       S  0.00556520  0.84523271  0.79509643    -0.32790
H1185       H  0.98670655  0.86589999  0.78108692     0.28580
H1186       H  0.50618015  0.86659493  0.94386715     0.28580
H1187       H  0.48357251  0.91951094  0.87552782     0.19170
H1188       H  0.00584450  0.81368082  0.85016586     0.19180
C1189       C  0.49489901  0.84364548  0.61092694    -0.06650
C1190       C  0.48361071  0.87210606  0.60439576    -0.17780
C1191       C  0.48481860  0.89526128  0.62555166     0.10540
C1192       C  0.99696067  0.88962229  0.65404287    -0.06580
C1193       C  0.00859448  0.86128141  0.66041093    -0.17820
C1194       C  0.00731792  0.83813146  0.63932315     0.10570
S1195       S  0.47149935  0.93167619  0.61457726    -0.32780
S1196       S  0.02033328  0.80169710  0.65056604    -0.32790
H1197       H  0.49916858  0.78528458  0.63422182     0.28580
H1198       H  0.49078717  0.94824694  0.63299781     0.28580
H1199       H  0.47437532  0.87647101  0.58248392     0.19170
H1200       H  0.01757585  0.85679245  0.68240760     0.19180
C1201       C  0.99800639  0.65638138  0.60767548    -0.06650
C1202       C  0.02141187  0.65759199  0.62831699    -0.17780
C1203       C  0.02342179  0.63723863  0.65185457     0.10540
C1204       C  0.00204947  0.61422658  0.65448948    -0.06580
C1205       C  0.47893974  0.61265249  0.63354384    -0.17820
C1206       C  0.47690697  0.63306442  0.60998814     0.10570
S1207       S  0.05227071  0.64379997  0.67895766    -0.32780
S1208       S  0.44786824  0.62688040  0.58297097    -0.32790
H1209       H  0.46492153  0.63571528  0.55821663     0.28580
H1210       H  0.03399113  0.63832470  0.70381322     0.28580
H1211       H  0.03758398  0.67546695  0.62700611     0.19170
H1212       H  0.46267359  0.59490395  0.63513723     0.19180
C1213       C  0.58903458  0.99558504  0.18160974     0.41930
N1214       N  0.56046814  0.01108442  0.21686412     0.00820
C1215       C  0.96594475  0.42439071  0.30258524    -0.07060
H1216       H  0.94626845  0.42205860  0.18526009     0.06310
C1217       C  0.92179523  0.03017309  0.19014180    -0.07410
Co1218     Co  0.53255819  0.45996496  0.24939717     0.74180
N1219       N  0.97925141  0.44051811  0.21512755    -0.26590
Co1220     Co  0.95600630  0.46533080  0.24690711     0.74070
C1221       C  0.90991424  0.00338389  0.17531450     0.42030
N1222       N  0.98769024  0.06360681  0.21424158     0.00430
N1223       N  0.93605711  0.49032071  0.21326751     0.00540
N1224       N  0.51606758  0.42111988  0.30265560    -0.47440
H1225       H  0.57604045  0.44637122  0.19049378     0.06290
N1226       N  0.50837939  0.43804240  0.21627774     0.00820
N1227       N  0.93357768  0.49125792  0.27857932     0.00560
C1228       C  0.90469718  0.50627783  0.31374259     0.42170
N1229       N  0.51684914  0.06135788  0.21501979    -0.26050
C1230       C  0.57192964  0.47283929  0.30561517    -0.06970
N1231       N  0.57899564  0.02037765  0.19586606    -0.47150
N1232       N  0.91507575  0.48166191  0.29947530    -0.47380
C1233       C  0.58440688  0.49963724  0.31988041     0.41940
N1234       N  0.50643945  0.43902288  0.28127902     0.00810
N1235       N  0.51499597  0.06236947  0.27993007    -0.26070
N1236       N  0.55780379  0.48170488  0.21730943    -0.26560
N1237       N  0.98578456  0.06415962  0.27945871     0.00450
H1238       H  0.54832067  0.08280429  0.30802916     0.06340
H1239       H  0.91671268  0.05571614  0.30498636     0.06370
N1240       N  0.97724859  0.44108191  0.28047837    -0.26610
N1241       N  0.93786647  0.01977569  0.21309960    -0.26220
N1242       N  0.55820367  0.01252668  0.28201092     0.00810
C1243       C  0.49576913  0.41189886  0.17824518     0.42210
C1244       C  0.52833785  0.07800988  0.19306789    -0.07470
N1245       N  0.93598583  0.02068034  0.27825794    -0.26220
H1246       H  0.91818087  0.05356288  0.18532153     0.06360
N1247       N  0.51917491  0.42060328  0.19488046    -0.47440
H1248       H  0.55170717  0.08074749  0.18853453     0.06350
C1249       C  0.99879955  0.09156220  0.31638699     0.42050
C1250       C  0.57439228  0.46997123  0.19546709    -0.06970
Co1251     Co  0.53814618  0.03726968  0.24837724     0.73790
N1252       N  0.97828861  0.08154741  0.19276617    -0.47160
C1253       C  0.99179835  0.41145523  0.31722034     0.42310
N1254       N  0.57514126  0.02326718  0.30370797    -0.47150
Co1255     Co  0.96141034  0.04258354  0.24625642     0.73890
C1256       C  0.91901149  0.03215370  0.29999507    -0.07480
C1257       C  0.96923010  0.42470784  0.19169101    -0.07040
N1258       N  0.55606462  0.48308551  0.28247965    -0.26570
N1259       N  0.91939232  0.47968491  0.19133861    -0.47330
H1260       H  0.94264672  0.42084013  0.30702145     0.06320
C1261       C  0.52526695  0.07924634  0.30246912    -0.07450
Cl1262     Cl  0.49702018  0.00129839  0.24775608    -0.50460
C1263       C  0.50269733  0.09170549  0.17859820     0.42080
H1264       H  0.57486674  0.44951649  0.31126543     0.06290
N1265       N  0.97512384  0.08170887  0.30082973    -0.47170
C1266       C  0.49590040  0.18066130  0.08537000     0.41930
N1267       N  0.50862966  0.21849415  0.05892500     0.00820
C1268       C  0.91902132  0.30568421  0.46921028    -0.07060
H1269       H  0.91694952  0.18986497  0.44547760     0.06310
C1270       C  0.52568360  0.19670056  0.41971565    -0.07410
Co1271     Co  0.95636223  0.25079489  0.03386050     0.74180
N1272       N  0.93671162  0.21785025  0.47926141    -0.26590
Co1273     Co  0.96017386  0.25104370  0.45658857     0.74070
C1274       C  0.49960572  0.18139312  0.40822544     0.42030
N1275       N  0.55922410  0.21956336  0.48511852     0.00430
N1276       N  0.98556500  0.21862816  0.43476951     0.00540
N1277       N  0.91643046  0.30439298  0.01970303    -0.47440
H1278       H  0.94619113  0.19044823  0.07795377     0.06290
N1279       N  0.93561182  0.21765679  0.00868961     0.00820
N1280       N  0.98472328  0.28431093  0.43511816     0.00560
C1281       C  0.99786207  0.32168072  0.40848534     0.42170
N1282       N  0.55743294  0.21961282  0.01451889    -0.26050
C1283       C  0.96784521  0.30631222  0.07484292    -0.06970
N1284       N  0.51937514  0.19656499  0.07549573    -0.47150
N1285       N  0.97413513  0.30613989  0.41823339    -0.47380
C1286       C  0.99408757  0.32043285  0.08759912     0.41940
N1287       N  0.93406562  0.28314549  0.00908097     0.00810
N1288       N  0.55629738  0.28481148  0.01510646    -0.26070
N1289       N  0.97943885  0.21838674  0.05773452    -0.26560
N1290       N  0.55828969  0.28493887  0.48570953     0.00450
H1291       H  0.57455996  0.31295306  0.04953732     0.06340
H1292       H  0.54738921  0.31252905  0.41640647     0.06370
N1293       N  0.93576152  0.28327951  0.47964681    -0.26610
N1294       N  0.51479600  0.21926423  0.43616351    -0.26220
N1295       N  0.50771957  0.28388952  0.05985330     0.00810
C1296       C  0.90999249  0.17920748  0.49555964     0.42210
C1297       C  0.57451050  0.19762164  0.02514434    -0.07470
N1298       N  0.51396893  0.28442349  0.43650462    -0.26220
H1299       H  0.54889072  0.19181484  0.41612813     0.06360
N1300       N  0.91976145  0.19518107  0.01928228    -0.47440
H1301       H  0.57783850  0.19271764  0.04854823     0.06350
C1302       C  0.58550836  0.32173398  0.49992732     0.42050
C1303       C  0.96929237  0.19549334  0.07406786    -0.06970
Co1304     Co  0.53291002  0.25171024  0.03759772     0.73820
N1305       N  0.57727085  0.19851756  0.47474720    -0.47160
C1306       C  0.90658202  0.31986473  0.49584185     0.42310
N1307       N  0.51797960  0.30525049  0.07765951    -0.47150
Co1308     Co  0.53707379  0.25206441  0.46035764     0.73890
C1309       C  0.52430304  0.30713110  0.42004116    -0.07480
C1310       C  0.92078562  0.19467251  0.46883127    -0.07040
N1311       N  0.97851369  0.28378180  0.05810876    -0.26570
N1312       N  0.97549477  0.19640059  0.41790132    -0.47330
H1313       H  0.91537820  0.31078582  0.44590182     0.06320
C1314       C  0.57227719  0.30755544  0.02609726    -0.07450
Cl1315     Cl  0.99662574  0.25145057  0.49709367    -0.50460
C1316       C  0.58763414  0.18349757  0.49872519     0.42080
H1317       H  0.94468210  0.31137261  0.07850540     0.06290
N1318       N  0.57560643  0.30663488  0.47566867    -0.47170
C1319       C  0.81272040  0.40748110  0.49537357     0.41930
N1320       N  0.77774945  0.43697584  0.00862370     0.00820
C1321       C  0.69402583  0.03090324  0.41971928    -0.07060
H1322       H  0.80894293  0.05412120  0.41997198     0.06310
C1323       C  0.80265313  0.07599639  0.03002339    -0.07410
Co1324     Co  0.74781375  0.46499250  0.45631022     0.74180
N1325       N  0.78108257  0.01972826  0.43853282    -0.26590
Co1326     Co  0.74836331  0.04255876  0.46248390     0.74070
C1327       C  0.81716197  0.08991672  0.50435951     0.42030
N1328       N  0.77816088  0.01000650  0.06159786     0.00430
N1329       N  0.78049953  0.06323679  0.48904903     0.00540
N1330       N  0.69548773  0.48046438  0.41686462    -0.47440
H1331       H  0.80612892  0.41841578  0.44557010     0.06290
N1332       N  0.78119319  0.49025434  0.43620421     0.00820
N1333       N  0.71588534  0.06450340  0.48770882     0.00560
C1334       C  0.68064142  0.09350728  0.50238535     0.42170
N1335       N  0.77768553  0.48059350  0.05898585    -0.26050
C1336       C  0.69138409  0.42524979  0.46604995    -0.06970
N1337       N  0.79760990  0.41796102  0.01921307    -0.47150
N1338       N  0.69545521  0.08347052  0.47799537    -0.47380
C1339       C  0.67547625  0.41381100  0.49216871     0.41940
N1340       N  0.71650069  0.49096634  0.43456870     0.00810
N1341       N  0.71301462  0.48204119  0.05727831    -0.26070
N1342       N  0.77882808  0.43943612  0.47927627    -0.26560
N1343       N  0.71342793  0.01141428  0.06004430     0.00450
H1344       H  0.68450934  0.44785315  0.07505964     0.06340
H1345       H  0.68809181  0.07993965  0.05160917     0.06370
N1346       N  0.71626799  0.02042582  0.43674635    -0.26610
N1347       N  0.78004578  0.06038717  0.01836830    -0.26220
N1348       N  0.71321462  0.43922921  0.00678540     0.00810
C1349       C  0.81841583  0.50438309  0.40986468     0.42210
C1350       C  0.79962876  0.46912479  0.07557214    -0.07470
N1351       N  0.71548591  0.06162115  0.01701731    -0.26220
H1352       H  0.80778081  0.07755279  0.05355176     0.06360
N1353       N  0.80289341  0.48015761  0.41889263    -0.47440
H1354       H  0.80467583  0.44557992  0.07760369     0.06350
C1355       C  0.67584925  0.99760852  0.08597564     0.42050
C1356       C  0.80056422  0.42182768  0.46884916    -0.06970
Co1357     Co  0.74543767  0.45922533  0.03329370     0.73820
N1358       N  0.79940551  0.01962633  0.07966045    -0.47160
C1359       C  0.68032653  0.00413747  0.40638770     0.42310
N1360       N  0.69068918  0.42307343  0.01646374    -0.47150
Co1361     Co  0.74679999  0.03625003  0.03974083     0.73890
C1362       C  0.69359950  0.07842567  0.02819400    -0.07480
C1363       C  0.80377359  0.03064898  0.42268838    -0.07040
N1364       N  0.71419067  0.44094466  0.47741152    -0.26570
N1365       N  0.80231664  0.08069738  0.47974722    -0.47330
H1366       H  0.68867868  0.05426859  0.41653900     0.06320
C1367       C  0.69007087  0.47127715  0.07280197    -0.07450
Cl1368     Cl  0.74715334  0.00077457  0.49794656    -0.50460
C1369       C  0.81377859  0.49510161  0.08962933     0.42080
H1370       H  0.68700110  0.42193106  0.44252960     0.06290
N1371       N  0.69185151  0.02166416  0.07739625    -0.47170
C1372       C  0.83654273  0.38493610  0.49643989    -0.06650
C1373       C  0.86119876  0.38898586  0.47790293    -0.17780
C1374       C  0.88489551  0.36887870  0.47824036     0.10540
C1375       C  0.88380995  0.34356663  0.49699573    -0.06580
C1376       C  0.85936406  0.33975342  0.01598143    -0.17820
C1377       C  0.83555558  0.35986324  0.01558552     0.10570
S1378       S  0.91636041  0.37770059  0.45524609    -0.32780
S1379       S  0.80378853  0.35102241  0.03832789    -0.32790
H1380       H  0.78274824  0.35989051  0.01690702     0.28580
H1381       H  0.93757739  0.36609577  0.47511439     0.28580
H1382       H  0.86236952  0.40841354  0.46355579     0.19170
H1383       H  0.85814384  0.32022171  0.03019762     0.19180
C1384       C  0.88832160  0.15427933  0.49805446    -0.06650
C1385       C  0.87075819  0.15319126  0.02393602    -0.17780
C1386       C  0.84755524  0.13268469  0.02687523     0.10540
C1387       C  0.84192861  0.11178030  0.50367867    -0.06580
C1388       C  0.86023881  0.11205808  0.47829099    -0.17820
C1389       C  0.88355704  0.13256167  0.47543221     0.10570
S1390       S  0.82473203  0.13666525  0.05965005    -0.32780
S1391       S  0.90715567  0.12836403  0.44325568    -0.32790
H1392       H  0.93327734  0.13542187  0.45892021     0.28580
H1393       H  0.79792986  0.13533148  0.04361529     0.28580
H1394       H  0.87410431  0.16950381  0.04160551     0.19170
H1395       H  0.85667702  0.09576060  0.46063867     0.19180
C1396       C  0.60809059  0.34578781  0.49884119    -0.06650
C1397       C  0.60768077  0.36560954  0.47454162    -0.17780
C1398       C  0.62857808  0.38869660  0.47195555     0.10540
C1399       C  0.65117321  0.39155637  0.49369331    -0.06580
C1400       C  0.65137633  0.37185555  0.01802355    -0.17820
C1401       C  0.63039708  0.34899984  0.02083973     0.10570
S1402       S  0.62408160  0.41435239  0.44132312    -0.32780
S1403       S  0.63471199  0.32272183  0.05114109    -0.32790
H1404       H  0.65548404  0.33929455  0.06784287     0.28580
H1405       H  0.63251021  0.43986523  0.45780228     0.28580
H1406       H  0.59051141  0.36349303  0.45772072     0.19170
H1407       H  0.66887618  0.37364206  0.03447902     0.19180
C1408       C  0.61168307  0.16071892  0.49843628    -0.06650
C1409       C  0.62926767  0.15801585  0.02414439    -0.17780
C1410       C  0.65216799  0.13695333  0.02607071     0.10540
C1411       C  0.65734372  0.11708742  0.50183201    -0.06580
C1412       C  0.64007271  0.12008302  0.47586148    -0.17820
C1413       C  0.61768345  0.14176499  0.47376630     0.10570
S1414       S  0.67584014  0.13829755  0.05865076    -0.32780
S1415       S  0.59697268  0.14332772  0.43945813    -0.32790
H1416       H  0.60743618  0.17215361  0.43250939     0.28580
H1417       H  0.65728976  0.15604602  0.07674723     0.28580
H1418       H  0.62578627  0.17325951  0.04261958     0.19170
H1419       H  0.64395690  0.10532326  0.45699157     0.19180
C1420       C  0.88203976  0.50589885  0.33781286    -0.06650
C1421       C  0.88148941  0.48152682  0.35757546    -0.17780
C1422       C  0.86154714  0.48053885  0.38162995     0.10540
C1423       C  0.84131892  0.50435137  0.38607666    -0.06580
C1424       C  0.84179220  0.02853389  0.36619183    -0.17820
C1425       C  0.86121587  0.02927072  0.34190614     0.10570
S1426       S  0.86386205  0.44883201  0.40629362    -0.32780
S1427       S  0.85600032  0.05936482  0.31575115    -0.32790
H1428       H  0.85965937  0.04110607  0.29031041     0.28580
H1429       H  0.85840383  0.46534089  0.43256523     0.28580
H1430       H  0.89720045  0.46339748  0.35470289     0.19170
H1431       H  0.82584587  0.04649506  0.36863436     0.19180
C1432       C  0.65539253  0.00217048  0.38468466    -0.06650
C1433       C  0.63638167  0.02686926  0.38160687    -0.17780
C1434       C  0.61285665  0.02655020  0.36117219     0.10540
C1435       C  0.60784965  0.50095917  0.34315028    -0.06580
C1436       C  0.62639179  0.47604283  0.34667557    -0.17820
C1437       C  0.65002055  0.47622952  0.36701897     0.10570
S1438       S  0.58918520  0.05893170  0.36013803    -0.32780
S1439       S  0.67363313  0.44349265  0.36848509    -0.32790
H1440       H  0.65580356  0.42436188  0.35106134     0.28580
H1441       H  0.60106093  0.06862818  0.33276461     0.28580
H1442       H  0.63967480  0.04661550  0.39531491     0.19170
H1443       H  0.62300107  0.45656528  0.33268054     0.19180
C1444       C  0.65266682  0.99766429  0.10947062    -0.06650
C1445       C  0.65009513  0.47212684  0.12739154    -0.17780
C1446       C  0.63058213  0.47107525  0.15153487     0.10540
C1447       C  0.61164080  0.99570078  0.15746252    -0.06580
C1448       C  0.61419889  0.02136794  0.13955640    -0.17820
C1449       C  0.63432731  0.02262032  0.11570011     0.10570
S1450       S  0.63362621  0.43866883  0.17514522    -0.32780
S1451       S  0.63476589  0.05633816  0.09372246    -0.32790
H1452       H  0.63796821  0.04140699  0.06616353     0.28580
H1453       H  0.63271618  0.45533885  0.20188685     0.28580
H1454       H  0.66458406  0.45315769  0.12367001     0.19170
H1455       H  0.59999323  0.04048101  0.14379294     0.19180
C1456       C  0.88687502  0.00114957  0.15167245    -0.06650
C1457       C  0.86778828  0.47629331  0.15234912    -0.17780
C1458       C  0.84371928  0.47370597  0.13282896     0.10540
C1459       C  0.83874023  0.49610744  0.11116731    -0.06580
C1460       C  0.85817360  0.02065395  0.10999467    -0.17820
C1461       C  0.88235016  0.02319059  0.12950955     0.10570
S1462       S  0.81910400  0.44253477  0.13876775    -0.32780
S1463       S  0.90723095  0.05413338  0.12352447    -0.32790
H1464       H  0.93304956  0.03773767  0.13001629     0.28580
H1465       H  0.79311467  0.45965149  0.13567055     0.28580
H1466       H  0.87076542  0.45921465  0.16920554     0.19170
H1467       H  0.85492277  0.03774575  0.09318810     0.19180
C1468       C  0.49913254  0.15797083  0.38526246    -0.06650
C1469       C  0.50361251  0.16643725  0.35552248    -0.17780
C1470       C  0.50286525  0.14524772  0.33248286     0.10540
C1471       C  0.99772947  0.11491464  0.33940347    -0.06580
C1472       C  0.99319346  0.10641532  0.36914633    -0.17820
C1473       C  0.99418309  0.12761645  0.39224467     0.10570
S1474       S  0.50906931  0.15826734  0.29488898    -0.32780
S1475       S  0.98968517  0.11442100  0.43000914    -0.32790
H1476       H  0.00627855  0.13707614  0.44407544     0.28580
H1477       H  0.49129267  0.13677749  0.28049935     0.28580
H1478       H  0.50753242  0.18975941  0.35021540     0.19170
H1479       H  0.98963105  0.08304013  0.37445799     0.19180
C1480       C  0.99220974  0.38798778  0.34003477    -0.06650
C1481       C  0.98800311  0.39630591  0.36994396    -0.17780
C1482       C  0.99089963  0.37531233  0.39288390     0.10540
C1483       C  0.99670393  0.34510858  0.38563338    -0.06580
C1484       C  0.50103214  0.33681257  0.35572792    -0.17820
C1485       C  0.49901317  0.35795143  0.33285246     0.10570
S1486       S  0.98836365  0.38877589  0.43082493    -0.32780
S1487       S  0.50556507  0.34523272  0.29509637    -0.32790
H1488       H  0.48670642  0.36590002  0.28108689     0.28580
H1489       H  0.00618016  0.36659506  0.44386724     0.28580
H1490       H  0.98357252  0.41951101  0.37552786     0.19170
H1491       H  0.50584440  0.31368079  0.35016578     0.19180
C1492       C  0.99489895  0.34364541  0.11092703    -0.06650
C1493       C  0.98361058  0.37210597  0.10439585    -0.17780
C1494       C  0.98481848  0.39526121  0.12555173     0.10540
C1495       C  0.49696067  0.38962227  0.15404288    -0.06580
C1496       C  0.50859444  0.36128138  0.16041095    -0.17820
C1497       C  0.50731788  0.33813144  0.13932316     0.10570
S1498       S  0.97149914  0.43167608  0.11457733    -0.32780
S1499       S  0.52033319  0.30169705  0.15056606    -0.32790
H1500       H  0.99916870  0.28528455  0.13422194     0.28580
H1501       H  0.99078698  0.44824688  0.13299782     0.28580
H1502       H  0.97437512  0.37647088  0.08248404     0.19170
H1503       H  0.51757577  0.35679240  0.18240763     0.19180
C1504       C  0.49800638  0.15638137  0.10767547    -0.06650
C1505       C  0.52141187  0.15759197  0.12831697    -0.17780
C1506       C  0.52342180  0.13723860  0.15185455     0.10540
C1507       C  0.50204948  0.11422655  0.15448946    -0.06580
C1508       C  0.97893973  0.11265247  0.13354387    -0.17820
C1509       C  0.97690694  0.13306439  0.10998816     0.10570
S1510       S  0.55227074  0.14379992  0.17895762    -0.32780
S1511       S  0.94786818  0.12688037  0.08297102    -0.32790
H1512       H  0.96492146  0.13571522  0.05821666     0.28580
H1513       H  0.53399116  0.13832466  0.20381318     0.28580
H1514       H  0.53758399  0.17546692  0.12700609     0.19170
H1515       H  0.96267356  0.09490394  0.13513728     0.19180
C1516       C  0.58903461  0.99558508  0.68160976     0.41930
N1517       N  0.56046815  0.01108444  0.71686412     0.00820
C1518       C  0.96594478  0.42439073  0.80258523    -0.07060
H1519       H  0.94626846  0.42205862  0.68526010     0.06310
C1520       C  0.92179521  0.03017307  0.69014180    -0.07410
Co1521     Co  0.53255820  0.45996497  0.74939715     0.74180
N1522       N  0.97925143  0.44051814  0.71512754    -0.26590
Co1523     Co  0.95600632  0.46533083  0.74690711     0.74070
C1524       C  0.90991424  0.00338387  0.67531451     0.42030
N1525       N  0.98769022  0.06360681  0.71424158     0.00430
N1526       N  0.93605712  0.49032074  0.71326751     0.00540
N1527       N  0.51606761  0.42111988  0.80265558    -0.47440
H1528       H  0.57604056  0.44637127  0.69049379     0.06290
N1529       N  0.50837941  0.43804242  0.71627772     0.00820
N1530       N  0.93357770  0.49125794  0.77857932     0.00560
C1531       C  0.90469720  0.50627785  0.81374259     0.42170
N1532       N  0.51684915  0.06135790  0.71501981    -0.26050
C1533       C  0.57192965  0.47283930  0.80561515    -0.06970
N1534       N  0.57899566  0.02037769  0.69586607    -0.47150
N1535       N  0.91507577  0.48166193  0.79947530    -0.47380
C1536       C  0.58440689  0.49963724  0.81988040     0.41940
N1537       N  0.50643947  0.43902287  0.78127900     0.00810
N1538       N  0.51499598  0.06236947  0.77993009    -0.26070
N1539       N  0.55780381  0.48170490  0.71730943    -0.26560
N1540       N  0.98578454  0.06415961  0.77945871     0.00450
H1541       H  0.54832067  0.08280429  0.80802918     0.06340
H1542       H  0.91671267  0.05571612  0.80498636     0.06370
N1543       N  0.97724862  0.44108193  0.78047836    -0.26610
N1544       N  0.93786646  0.01977568  0.71309960    -0.26220
N1545       N  0.55820368  0.01252668  0.78201092     0.00810
C1546       C  0.49576915  0.41189889  0.67824515     0.42210
C1547       C  0.52833785  0.07800990  0.69306791    -0.07470
N1548       N  0.93598583  0.02068031  0.77825794    -0.26220
H1549       H  0.91818085  0.05356286  0.68532154     0.06360
N1550       N  0.51917493  0.42060331  0.69488043    -0.47440
H1551       H  0.55170717  0.08074752  0.68853455     0.06350
C1552       C  0.99879952  0.09156218  0.81638700     0.42050
C1553       C  0.57439233  0.46997128  0.69546710    -0.06970
Co1554     Co  0.53814619  0.03726969  0.74837725     0.73790
N1555       N  0.97828859  0.08154741  0.69276617    -0.47160
C1556       C  0.99179838  0.41145524  0.81722032     0.42310
N1557       N  0.57514126  0.02326717  0.80370798    -0.47150
Co1558     Co  0.96141032  0.04258353  0.74625642     0.73890
C1559       C  0.91901149  0.03215368  0.79999507    -0.07480
C1560       C  0.96923012  0.42470787  0.69169101    -0.07040
N1561       N  0.55606462  0.48308552  0.78247964    -0.26570
N1562       N  0.91939233  0.47968494  0.69133862    -0.47330
H1563       H  0.94264675  0.42084014  0.80702145     0.06320
C1564       C  0.52526696  0.07924633  0.80246914    -0.07450
Cl1565     Cl  0.49702019  0.00129839  0.74775608    -0.50460
C1566       C  0.50269734  0.09170551  0.67859823     0.42080
H1567       H  0.57486676  0.44951650  0.81126540     0.06290
N1568       N  0.97512382  0.08170886  0.80082973    -0.47170
C1569       C  0.49590040  0.18066130  0.58537001     0.41930
N1570       N  0.50862966  0.21849415  0.55892500     0.00820
C1571       C  0.91902133  0.30568423  0.96921028    -0.07060
H1572       H  0.91694951  0.18986498  0.94547759     0.06310
C1573       C  0.52568360  0.19670057  0.91971565    -0.07410
Co1574     Co  0.95636223  0.25079488  0.53386051     0.74180
N1575       N  0.93671161  0.21785026  0.97926141    -0.26590
Co1576     Co  0.96017386  0.25104371  0.95658856     0.74070
C1577       C  0.49960572  0.18139313  0.90822544     0.42030
N1578       N  0.55922410  0.21956336  0.98511852     0.00430
N1579       N  0.98556500  0.21862816  0.93476950     0.00540
N1580       N  0.91643046  0.30439297  0.51970303    -0.47440
H1581       H  0.94619113  0.19044822  0.57795377     0.06290
N1582       N  0.93561182  0.21765678  0.50868961     0.00820
N1583       N  0.98472329  0.28431094  0.93511815     0.00560
C1584       C  0.99786209  0.32168072  0.90848532     0.42170
N1585       N  0.55743294  0.21961282  0.51451889    -0.26050
C1586       C  0.96784520  0.30631221  0.57484293    -0.06970
N1587       N  0.51937514  0.19656499  0.57549574    -0.47150
N1588       N  0.97413514  0.30613990  0.91823338    -0.47380
C1589       C  0.99408756  0.32043285  0.58759913     0.41940
N1590       N  0.93406562  0.28314548  0.50908097     0.00810
N1591       N  0.55629738  0.28481148  0.51510645    -0.26070
N1592       N  0.97943885  0.21838674  0.55773453    -0.26560
N1593       N  0.55828970  0.28493887  0.98570953     0.00450
H1594       H  0.57455995  0.31295306  0.54953732     0.06340
H1595       H  0.54738922  0.31252905  0.91640647     0.06370
N1596       N  0.93576153  0.28327952  0.97964681    -0.26610
N1597       N  0.51479600  0.21926424  0.93616351    -0.26220
N1598       N  0.50771956  0.28388952  0.55985330     0.00810
C1599       C  0.90999248  0.17920749  0.99555964     0.42210
C1600       C  0.57451050  0.19762163  0.52514434    -0.07470
N1601       N  0.51396894  0.28442350  0.93650462    -0.26220
H1602       H  0.54889071  0.19181484  0.91612814     0.06360
N1603       N  0.91976145  0.19518106  0.51928229    -0.47440
H1604       H  0.57783850  0.19271764  0.54854823     0.06350
C1605       C  0.58550837  0.32173398  0.99992733     0.42050
C1606       C  0.96929237  0.19549333  0.57406786    -0.06970
Co1607     Co  0.53291001  0.25171023  0.53759772     0.73820
N1608       N  0.57727086  0.19851756  0.97474720    -0.47160
C1609       C  0.90658203  0.31986474  0.99584185     0.42310
N1610       N  0.51797959  0.30525049  0.57765951    -0.47150
Co1611     Co  0.53707379  0.25206442  0.96035764     0.73890
C1612       C  0.52430305  0.30713111  0.92004117    -0.07480
C1613       C  0.92078561  0.19467252  0.96883126    -0.07040
N1614       N  0.97851368  0.28378179  0.55810877    -0.26570
N1615       N  0.97549476  0.19640059  0.91790131    -0.47330
H1616       H  0.91537821  0.31078584  0.94590182     0.06320
C1617       C  0.57227718  0.30755543  0.52609725    -0.07450
Cl1618     Cl  0.99662575  0.25145057  0.99709366    -0.50460
C1619       C  0.58763414  0.18349757  0.99872519     0.42080
H1620       H  0.94468209  0.31137260  0.57850541     0.06290
N1621       N  0.57560644  0.30663489  0.97566867    -0.47170
C1622       C  0.81272041  0.40748111  0.99537356     0.41930
N1623       N  0.77774944  0.43697583  0.50862371     0.00820
C1624       C  0.69402583  0.03090323  0.91971929    -0.07060
H1625       H  0.80894294  0.05412120  0.91997199     0.06310
C1626       C  0.80265313  0.07599639  0.53002338    -0.07410
Co1627     Co  0.74781375  0.46499251  0.95631020     0.74180
N1628       N  0.78108258  0.01972826  0.93853283    -0.26590
Co1629     Co  0.74836332  0.04255876  0.96248391     0.74070
C1630       C  0.81716197  0.08991673  0.00435952     0.42030
N1631       N  0.77816088  0.01000650  0.56159785     0.00430
N1632       N  0.78049953  0.06323680  0.98904904     0.00540
N1633       N  0.69548773  0.48046438  0.91686461    -0.47440
H1634       H  0.80612893  0.41841579  0.94557009     0.06290
N1635       N  0.78119319  0.49025435  0.93620420     0.00820
N1636       N  0.71588534  0.06450340  0.98770883     0.00560
C1637       C  0.68064143  0.09350728  0.00238535     0.42170
N1638       N  0.77768553  0.48059350  0.55898587    -0.26050
C1639       C  0.69138410  0.42524979  0.96604994    -0.06970
N1640       N  0.79760989  0.41796101  0.51921308    -0.47150
N1641       N  0.69545521  0.08347052  0.97799538    -0.47380
C1642       C  0.67547626  0.41381100  0.99216870     0.41940
N1643       N  0.71650070  0.49096635  0.93456869     0.00810
N1644       N  0.71301461  0.48204119  0.55727833    -0.26070
N1645       N  0.77882808  0.43943613  0.97927625    -0.26560
N1646       N  0.71342793  0.01141429  0.56004430     0.00450
H1647       H  0.68450935  0.44785314  0.57505971     0.06340
H1648       H  0.68809181  0.07993965  0.55160917     0.06370
N1649       N  0.71626800  0.02042581  0.93674636    -0.26610
N1650       N  0.78004578  0.06038717  0.51836829    -0.26220
N1651       N  0.71321461  0.43922920  0.50678542     0.00810
C1652       C  0.81841583  0.50438310  0.90986467     0.42210
C1653       C  0.79962875  0.46912479  0.57557216    -0.07470
N1654       N  0.71548591  0.06162115  0.51701731    -0.26220
H1655       H  0.80778081  0.07755278  0.55355175     0.06360
N1656       N  0.80289342  0.48015762  0.91889262    -0.47440
H1657       H  0.80467583  0.44557992  0.57760371     0.06350
C1658       C  0.67584927  0.99760853  0.58597566     0.42050
C1659       C  0.80056423  0.42182769  0.96884915    -0.06970
Co1660     Co  0.74543766  0.45922533  0.53329371     0.73820
N1661       N  0.79940551  0.01962632  0.57966044    -0.47160
C1662       C  0.68032653  0.00413745  0.90638771     0.42310
N1663       N  0.69068917  0.42307343  0.51646375    -0.47150
Co1664     Co  0.74679999  0.03625002  0.53974083     0.73890
C1665       C  0.69359950  0.07842567  0.52819400    -0.07480
C1666       C  0.80377360  0.03064898  0.92268839    -0.07040
N1667       N  0.71419067  0.44094466  0.97741150    -0.26570
N1668       N  0.80231665  0.08069739  0.97974723    -0.47330
H1669       H  0.68867868  0.05426858  0.91653901     0.06320
C1670       C  0.69007088  0.47127714  0.57280201    -0.07450
Cl1671     Cl  0.74715335  0.00077457  0.99794657    -0.50460
C1672       C  0.81377858  0.49510161  0.58962935     0.42080
H1673       H  0.68700111  0.42193106  0.94252959     0.06290
N1674       N  0.69185152  0.02166416  0.57739625    -0.47170
C1675       C  0.83654274  0.38493611  0.99643988    -0.06650
C1676       C  0.86119878  0.38898589  0.97790294    -0.17780
C1677       C  0.88489553  0.36887872  0.97824038     0.10540
C1678       C  0.88380996  0.34356665  0.99699573    -0.06580
C1679       C  0.85936406  0.33975342  0.51598144    -0.17820
C1680       C  0.83555558  0.35986324  0.51558554     0.10570
S1681       S  0.91636044  0.37770063  0.95524612    -0.32780
S1682       S  0.80378854  0.35102242  0.53832793    -0.32790
H1683       H  0.78274824  0.35989051  0.51690707     0.28580
H1684       H  0.93757741  0.36609579  0.97511443     0.28580
H1685       H  0.86236955  0.40841356  0.96355581     0.19170
H1686       H  0.85814385  0.32022171  0.53019764     0.19180
C1687       C  0.88832160  0.15427934  0.99805446    -0.06650
C1688       C  0.87075818  0.15319125  0.52393602    -0.17780
C1689       C  0.84755523  0.13268469  0.52687522     0.10540
C1690       C  0.84192862  0.11178030  0.00367868    -0.06580
C1691       C  0.86023880  0.11205809  0.97829099    -0.17820
C1692       C  0.88355703  0.13256169  0.97543221     0.10570
S1693       S  0.82473200  0.13666526  0.55965003    -0.32780
S1694       S  0.90715565  0.12836406  0.94325566    -0.32790
H1695       H  0.93327732  0.13542188  0.95892019     0.28580
H1696       H  0.79792984  0.13533148  0.54361525     0.28580
H1697       H  0.87410429  0.16950381  0.54160550     0.19170
H1698       H  0.85667701  0.09576062  0.96063867     0.19180
C1699       C  0.60809060  0.34578781  0.99884119    -0.06650
C1700       C  0.60768078  0.36560953  0.97454162    -0.17780
C1701       C  0.62857809  0.38869660  0.97195554     0.10540
C1702       C  0.65117322  0.39155637  0.99369330    -0.06580
C1703       C  0.65137631  0.37185555  0.51802356    -0.17820
C1704       C  0.63039707  0.34899983  0.52083973     0.10570
S1705       S  0.62408161  0.41435238  0.94132311    -0.32780
S1706       S  0.63471198  0.32272182  0.55114108    -0.32790
H1707       H  0.65548402  0.33929454  0.56784287     0.28580
H1708       H  0.63251021  0.43986523  0.95780227     0.28580
H1709       H  0.59051141  0.36349302  0.95772072     0.19170
H1710       H  0.66887617  0.37364205  0.53447902     0.19180
C1711       C  0.61168307  0.16071892  0.99843628    -0.06650
C1712       C  0.62926768  0.15801586  0.52414438    -0.17780
C1713       C  0.65216800  0.13695334  0.52607069     0.10540
C1714       C  0.65734373  0.11708742  0.00183201    -0.06580
C1715       C  0.64007273  0.12008304  0.97586147    -0.17820
C1716       C  0.61768347  0.14176501  0.97376629     0.10570
S1717       S  0.67584018  0.13829758  0.55865073    -0.32780
S1718       S  0.59697273  0.14332776  0.93945810    -0.32790
H1719       H  0.60743623  0.17215366  0.93250940     0.28580
H1720       H  0.65728982  0.15604608  0.57674720     0.28580
H1721       H  0.62578630  0.17325953  0.54261957     0.19170
H1722       H  0.64395693  0.10532329  0.95699156     0.19180
C1723       C  0.88203977  0.50589887  0.83781286    -0.06650
C1724       C  0.88148943  0.48152683  0.85757546    -0.17780
C1725       C  0.86154715  0.48053886  0.88162995     0.10540
C1726       C  0.84131892  0.50435138  0.88607665    -0.06580
C1727       C  0.84179220  0.02853388  0.86619183    -0.17820
C1728       C  0.86121587  0.02927070  0.84190614     0.10570
S1729       S  0.86386206  0.44883202  0.90629361    -0.32780
S1730       S  0.85600030  0.05936478  0.81575113    -0.32790
H1731       H  0.85965936  0.04110601  0.79031040     0.28580
H1732       H  0.85840383  0.46534090  0.93256523     0.28580
H1733       H  0.89720047  0.46339750  0.85470289     0.19170
H1734       H  0.82584587  0.04649504  0.86863436     0.19180
C1735       C  0.65539253  0.00217046  0.88468468    -0.06650
C1736       C  0.63638170  0.02686926  0.88160686    -0.17780
C1737       C  0.61285669  0.02655021  0.86117217     0.10540
C1738       C  0.60784966  0.50095918  0.84315027    -0.06580
C1739       C  0.62639179  0.47604283  0.84667556    -0.17820
C1740       C  0.65002055  0.47622952  0.86701896     0.10570
S1741       S  0.58918528  0.05893175  0.86013796    -0.32780
S1742       S  0.67363313  0.44349265  0.86848508    -0.32790
H1743       H  0.65580356  0.42436188  0.85106133     0.28580
H1744       H  0.60106104  0.06862817  0.83276453     0.28580
H1745       H  0.63967485  0.04661552  0.89531486     0.19170
H1746       H  0.62300107  0.45656528  0.83268054     0.19180
C1747       C  0.65266685  0.99766431  0.60947064    -0.06650
C1748       C  0.65009531  0.47212695  0.62739174    -0.17780
C1749       C  0.63058232  0.47107540  0.65153507     0.10540
C1750       C  0.61164084  0.99570083  0.65746255    -0.06580
C1751       C  0.61419887  0.02136794  0.63955636    -0.17820
C1752       C  0.63432727  0.02262030  0.61570006     0.10570
S1753       S  0.63362656  0.43866914  0.67514564    -0.32780
S1754       S  0.63476576  0.05633808  0.59372231    -0.32790
H1755       H  0.63796817  0.04140684  0.56616342     0.28580
H1756       H  0.63271632  0.45533931  0.70188718     0.28580
H1757       H  0.66458435  0.45315786  0.62367032     0.19170
H1758       H  0.59999315  0.04048098  0.64379285     0.19180
C1759       C  0.88687501  0.00114956  0.65167245    -0.06650
C1760       C  0.86778829  0.47629332  0.65234913    -0.17780
C1761       C  0.84371928  0.47370598  0.63282897     0.10540
C1762       C  0.83874022  0.49610745  0.61116733    -0.06580
C1763       C  0.85817360  0.02065394  0.60999467    -0.17820
C1764       C  0.88235016  0.02319058  0.62950955     0.10570
S1765       S  0.81910402  0.44253476  0.63876776    -0.32780
S1766       S  0.90723095  0.05413336  0.62352447    -0.32790
H1767       H  0.93304956  0.03773765  0.63001630     0.28580
H1768       H  0.79311469  0.45965147  0.63567056     0.28580
H1769       H  0.87076544  0.45921467  0.66920554     0.19170
H1770       H  0.85492277  0.03774573  0.59318809     0.19180
C1771       C  0.49913253  0.15797083  0.88526247    -0.06650
C1772       C  0.50361250  0.16643725  0.85552248    -0.17780
C1773       C  0.50286524  0.14524772  0.83248287     0.10540
C1774       C  0.99772945  0.11491463  0.83940348    -0.06580
C1775       C  0.99319344  0.10641532  0.86914634    -0.17820
C1776       C  0.99418307  0.12761645  0.89224467     0.10570
S1777       S  0.50906930  0.15826733  0.79488899    -0.32780
S1778       S  0.98968517  0.11442100  0.93000915    -0.32790
H1779       H  0.00627854  0.13707614  0.94407545     0.28580
H1780       H  0.49129266  0.13677747  0.78049936     0.28580
H1781       H  0.50753241  0.18975941  0.85021539     0.19170
H1782       H  0.98963104  0.08304013  0.87445800     0.19180
C1783       C  0.99220977  0.38798779  0.84003476    -0.06650
C1784       C  0.98800313  0.39630592  0.86994394    -0.17780
C1785       C  0.99089964  0.37531233  0.89288388     0.10540
C1786       C  0.99670395  0.34510858  0.88563336    -0.06580
C1787       C  0.50103218  0.33681257  0.85572792    -0.17820
C1788       C  0.49901322  0.35795142  0.83285245     0.10570
S1789       S  0.98836365  0.38877589  0.93082491    -0.32780
S1790       S  0.50556514  0.34523271  0.79509637    -0.32790
H1791       H  0.48670650  0.36590000  0.78108688     0.28580
H1792       H  0.00618017  0.36659506  0.94386723     0.28580
H1793       H  0.98357253  0.41951102  0.87552784     0.19170
H1794       H  0.50584445  0.31368080  0.85016578     0.19180
C1795       C  0.99489893  0.34364541  0.61092704    -0.06650
C1796       C  0.98361057  0.37210597  0.60439586    -0.17780
C1797       C  0.98481848  0.39526122  0.62555173     0.10540
C1798       C  0.49696069  0.38962229  0.65404285    -0.06580
C1799       C  0.50859445  0.36128139  0.66041093    -0.17820
C1800       C  0.50731787  0.33813145  0.63932315     0.10570
S1801       S  0.97149914  0.43167609  0.61457732    -0.32780
S1802       S  0.52033317  0.30169706  0.65056605    -0.32790
H1803       H  0.99916867  0.28528455  0.63422196     0.28580
H1804       H  0.99078699  0.44824689  0.63299780     0.28580
H1805       H  0.97437511  0.37647088  0.58248404     0.19170
H1806       H  0.51757578  0.35679242  0.68240761     0.19180
C1807       C  0.49800638  0.15638138  0.60767548    -0.06650
C1808       C  0.52141186  0.15759200  0.62831699    -0.17780
C1809       C  0.52342179  0.13723862  0.65185457     0.10540
C1810       C  0.50204948  0.11422657  0.65448948    -0.06580
C1811       C  0.97893972  0.11265247  0.63354386    -0.17820
C1812       C  0.97690695  0.13306438  0.60998815     0.10570
S1813       S  0.55227072  0.14379996  0.67895766    -0.32780
S1814       S  0.94786821  0.12688035  0.58297099    -0.32790
H1815       H  0.96492149  0.13571521  0.55821664     0.28580
H1816       H  0.53399113  0.13832469  0.70381321     0.28580
H1817       H  0.53758397  0.17546695  0.62700611     0.19170
H1818       H  0.96267357  0.09490393  0.63513726     0.19180
C1819       C  0.58903458  0.49558503  0.18160974     0.41930
N1820       N  0.56046815  0.51108442  0.21686412     0.00820
C1821       C  0.96594474  0.92439071  0.30258522    -0.07060
H1822       H  0.94626844  0.92205863  0.18526009     0.06310
C1823       C  0.92179522  0.53017305  0.19014177    -0.07410
Co1824     Co  0.53255819  0.95996497  0.24939717     0.74180
N1825       N  0.97925141  0.94051814  0.21512754    -0.26590
Co1826     Co  0.95600630  0.96533082  0.24690712     0.74070
C1827       C  0.90991424  0.50338385  0.17531448     0.42030
N1828       N  0.98769022  0.56360678  0.21424156     0.00430
N1829       N  0.93605712  0.99032075  0.21326752     0.00540
N1830       N  0.51606758  0.92111989  0.30265561    -0.47440
H1831       H  0.57604046  0.94637123  0.19049378     0.06290
N1832       N  0.50837938  0.93804240  0.21627775     0.00820
N1833       N  0.93357769  0.99125794  0.27857933     0.00560
C1834       C  0.90469719  0.00627785  0.31374260     0.42170
N1835       N  0.51684915  0.56135788  0.21501979    -0.26050
C1836       C  0.57192964  0.97283930  0.30561517    -0.06970
N1837       N  0.57899565  0.52037765  0.19586606    -0.47150
N1838       N  0.91507575  0.98166193  0.29947531    -0.47380
C1839       C  0.58440688  0.99963725  0.31988041     0.41940
N1840       N  0.50643945  0.93902288  0.28127903     0.00810
N1841       N  0.51499598  0.56236947  0.27993007    -0.26070
N1842       N  0.55780378  0.98170488  0.21730943    -0.26560
N1843       N  0.98578453  0.56415960  0.27945869     0.00450
H1844       H  0.54832067  0.58280428  0.30802916     0.06340
H1845       H  0.91671265  0.55571612  0.30498633     0.06370
N1846       N  0.97724859  0.94108192  0.28047836    -0.26610
N1847       N  0.93786646  0.51977566  0.21309958    -0.26220
N1848       N  0.55820367  0.51252668  0.28201092     0.00810
C1849       C  0.49576913  0.91189886  0.17824519     0.42210
C1850       C  0.52833786  0.57800988  0.19306789    -0.07470
N1851       N  0.93598581  0.52068031  0.27825792    -0.26220
H1852       H  0.91818086  0.55356284  0.18532150     0.06360
N1853       N  0.51917490  0.92060328  0.19488047    -0.47440
H1854       H  0.55170718  0.58074750  0.18853453     0.06350
C1855       C  0.99879950  0.59156216  0.31638698     0.42050
C1856       C  0.57439228  0.96997123  0.19546709    -0.06970
Co1857     Co  0.53814619  0.53726968  0.24837724     0.73790
N1858       N  0.97828859  0.58154739  0.19276615    -0.47160
C1859       C  0.99179834  0.91145522  0.31722032     0.42310
N1860       N  0.57514126  0.52326717  0.30370798    -0.47150
Co1861     Co  0.96141032  0.54258352  0.24625640     0.73890
C1862       C  0.91901147  0.53215368  0.29999505    -0.07480
C1863       C  0.96923010  0.92470787  0.19169101    -0.07040
N1864       N  0.55606461  0.98308552  0.28247965    -0.26570
N1865       N  0.91939233  0.97968495  0.19133862    -0.47330
H1866       H  0.94264671  0.92084013  0.30702143     0.06320
C1867       C  0.52526696  0.57924633  0.30246912    -0.07450
Cl1868     Cl  0.49702018  0.50129839  0.24775607    -0.50460
C1869       C  0.50269735  0.59170549  0.17859820     0.42080
H1870       H  0.57486673  0.94951650  0.31126543     0.06290
N1871       N  0.97512380  0.58170884  0.30082971    -0.47170
C1872       C  0.49590042  0.68066132  0.08537001     0.41930
N1873       N  0.50862968  0.71849416  0.05892501     0.00820
C1874       C  0.91902131  0.80568419  0.46921025    -0.07060
H1875       H  0.91694949  0.68986494  0.44547766     0.06310
C1876       C  0.52568362  0.69670056  0.41971564    -0.07410
Co1877     Co  0.95636224  0.75079490  0.03386051     0.74180
N1878       N  0.93671159  0.71785024  0.47926145    -0.26590
Co1879     Co  0.96017383  0.75104366  0.45658856     0.74070
C1880       C  0.49960574  0.68139312  0.40822543     0.42030
N1881       N  0.55922411  0.71956335  0.48511852     0.00430
N1882       N  0.98556495  0.71862809  0.43476952     0.00540
N1883       N  0.91643046  0.80439298  0.01970303    -0.47440
H1884       H  0.94619114  0.69044824  0.07795378     0.06290
N1885       N  0.93561181  0.71765679  0.00868962     0.00820
N1886       N  0.98472325  0.78431087  0.43511811     0.00560
C1887       C  0.99786203  0.82168063  0.40848525     0.42170
N1888       N  0.55743295  0.71961282  0.01451889    -0.26050
C1889       C  0.96784522  0.80631224  0.07484291    -0.06970
N1890       N  0.51937516  0.69656500  0.07549574    -0.47150
N1891       N  0.97413509  0.80613982  0.41823333    -0.47380
C1892       C  0.99408758  0.82043287  0.08759911     0.41940
N1893       N  0.93406562  0.78314549  0.00908097     0.00810
N1894       N  0.55629740  0.78481147  0.01510644    -0.26070
N1895       N  0.97943886  0.71838675  0.05773453    -0.26560
N1896       N  0.55828971  0.78493887  0.48570953     0.00450
H1897       H  0.57456003  0.81295303  0.04953729     0.06340
H1898       H  0.54738922  0.81252905  0.41640648     0.06370
N1899       N  0.93576152  0.78327950  0.47964679    -0.26610
N1900       N  0.51479602  0.71926423  0.43616350    -0.26220
N1901       N  0.50771959  0.78388953  0.05985329     0.00810
C1902       C  0.90999248  0.67920748  0.49555971     0.42210
C1903       C  0.57451051  0.69762163  0.02514434    -0.07470
N1904       N  0.51396895  0.78442349  0.43650463    -0.26220
H1905       H  0.54889073  0.69181484  0.41612813     0.06360
N1906       N  0.91976145  0.69518107  0.01928230    -0.47440
H1907       H  0.57783851  0.69271764  0.04854822     0.06350
C1908       C  0.58550838  0.82173397  0.49992733     0.42050
C1909       C  0.96929238  0.69549335  0.07406787    -0.06970
Co1910     Co  0.53291003  0.75171024  0.03759771     0.73820
N1911       N  0.57727086  0.69851755  0.47474720    -0.47160
C1912       C  0.90658202  0.81986473  0.49584182     0.42310
N1913       N  0.51797962  0.80525051  0.07765950    -0.47150
Co1914     Co  0.53707380  0.75206441  0.46035764     0.73890
C1915       C  0.52430306  0.80713110  0.42004117    -0.07480
C1916       C  0.92078559  0.69467250  0.46883132    -0.07040
N1917       N  0.97851370  0.78378181  0.05810876    -0.26570
N1918       N  0.97549470  0.69640051  0.41790135    -0.47330
H1919       H  0.91537816  0.81078578  0.44590179     0.06320
C1920       C  0.57227724  0.80755541  0.02609723    -0.07450
Cl1921     Cl  0.99662574  0.75145056  0.49709364    -0.50460
C1922       C  0.58763414  0.68349756  0.49872519     0.42080
H1923       H  0.94468211  0.81137263  0.07850540     0.06290
N1924       N  0.57560645  0.80663488  0.47566867    -0.47170
C1925       C  0.81272040  0.90748111  0.49537355     0.41930
N1926       N  0.77774946  0.93697585  0.00862372     0.00820
C1927       C  0.69402585  0.53090323  0.41971927    -0.07060
H1928       H  0.80894295  0.55412119  0.41997199     0.06310
C1929       C  0.80265313  0.57599639  0.03002338    -0.07410
Co1930     Co  0.74781374  0.96499251  0.45631021     0.74180
N1931       N  0.78108258  0.51972825  0.43853283    -0.26590
Co1932     Co  0.74836332  0.54255875  0.46248391     0.74070
C1933       C  0.81716197  0.58991671  0.50435955     0.42030
N1934       N  0.77816087  0.51000649  0.06159785     0.00430
N1935       N  0.78049953  0.56323678  0.48904905     0.00540
N1936       N  0.69548771  0.98046438  0.41686463    -0.47440
H1937       H  0.80612891  0.91841579  0.44557008     0.06290
N1938       N  0.78119318  0.99025435  0.43620420     0.00820
N1939       N  0.71588534  0.56450339  0.48770883     0.00560
C1940       C  0.68064143  0.59350727  0.50238534     0.42170
N1941       N  0.77768554  0.98059352  0.05898587    -0.26050
C1942       C  0.69138409  0.92524980  0.46604996    -0.06970
N1943       N  0.79760991  0.91796103  0.01921308    -0.47150
N1944       N  0.69545522  0.58347051  0.47799537    -0.47380
C1945       C  0.67547626  0.91381100  0.49216872     0.41940
N1946       N  0.71650068  0.99096635  0.43456870     0.00810
N1947       N  0.71301463  0.98204120  0.05727833    -0.26070
N1948       N  0.77882808  0.93943613  0.47927625    -0.26560
N1949       N  0.71342793  0.51141428  0.06004429     0.00450
H1950       H  0.68450935  0.94785315  0.07505966     0.06340
H1951       H  0.68809181  0.57993964  0.05160916     0.06370
N1952       N  0.71626801  0.52042581  0.43674635    -0.26610
N1953       N  0.78004579  0.56038716  0.01836829    -0.26220
N1954       N  0.71321463  0.93922920  0.00678542     0.00810
C1955       C  0.81841581  0.00438310  0.40986467     0.42210
C1956       C  0.79962877  0.96912481  0.07557216    -0.07470
N1957       N  0.71548591  0.56162115  0.01701731    -0.26220
H1958       H  0.80778081  0.57755278  0.05355176     0.06360
N1959       N  0.80289340  0.98015762  0.41889262    -0.47440
H1960       H  0.80467585  0.94557994  0.07760371     0.06350
C1961       C  0.67584925  0.49760852  0.08597563     0.42050
C1962       C  0.80056422  0.92182769  0.46884914    -0.06970
Co1963     Co  0.74543768  0.95922534  0.03329371     0.73820
N1964       N  0.79940551  0.51962631  0.07966044    -0.47160
C1965       C  0.68032654  0.50413746  0.40638769     0.42310
N1966       N  0.69068920  0.92307341  0.01646376    -0.47150
Co1967     Co  0.74679999  0.53625002  0.03974082     0.73890
C1968       C  0.69359950  0.57842567  0.02819399    -0.07480
C1969       C  0.80377360  0.53064896  0.42268839    -0.07040
N1970       N  0.71419067  0.94094467  0.47741152    -0.26570
N1971       N  0.80231665  0.58069737  0.47974725    -0.47330
H1972       H  0.68867870  0.55426859  0.41653900     0.06320
C1973       C  0.69007088  0.97127715  0.07280199    -0.07450
Cl1974     Cl  0.74715334  0.50077456  0.49794657    -0.50460
C1975       C  0.81377859  0.99510164  0.08962935     0.42080
H1976       H  0.68700110  0.92193106  0.44252961     0.06290
N1977       N  0.69185151  0.52166415  0.07739624    -0.47170
C1978       C  0.83654274  0.88493611  0.49643986    -0.06650
C1979       C  0.86119874  0.88898585  0.47790288    -0.17780
C1980       C  0.88489549  0.86887869  0.47824030     0.10540
C1981       C  0.88380995  0.84356664  0.49699569    -0.06580
C1982       C  0.85936406  0.83975342  0.01598143    -0.17820
C1983       C  0.83555558  0.85986324  0.01558552     0.10570
S1984       S  0.91636037  0.87770056  0.45524598    -0.32780
S1985       S  0.80378852  0.85102241  0.03832788    -0.32790
H1986       H  0.78274824  0.85989053  0.01690701     0.28580
H1987       H  0.93757737  0.86609575  0.47511427     0.28580
H1988       H  0.86236949  0.90841351  0.46355572     0.19170
H1989       H  0.85814383  0.82022170  0.03019761     0.19180
C1990       C  0.88832161  0.65427932  0.49805454    -0.06650
C1991       C  0.87075816  0.65319127  0.02393603    -0.17780
C1992       C  0.84755521  0.63268470  0.02687523     0.10540
C1993       C  0.84192862  0.61178029  0.50367873    -0.06580
C1994       C  0.86023883  0.61205806  0.47829106    -0.17820
C1995       C  0.88355706  0.63256165  0.47543230     0.10570
S1996       S  0.82473197  0.63666528  0.05965003    -0.32780
S1997       S  0.90715573  0.62836399  0.44325580    -0.32790
H1998       H  0.93327739  0.63542185  0.45892034     0.28580
H1999       H  0.79792981  0.63533148  0.04361524     0.28580
H2000       H  0.87410427  0.66950383  0.04160551     0.19170
H2001       H  0.85667707  0.59576057  0.46063875     0.19180
C2002       C  0.60809060  0.84578780  0.49884120    -0.06650
C2003       C  0.60768078  0.86560954  0.47454163    -0.17780
C2004       C  0.62857809  0.88869661  0.47195556     0.10540
C2005       C  0.65117322  0.89155637  0.49369332    -0.06580
C2006       C  0.65137642  0.87185545  0.01802350    -0.17820
C2007       C  0.63039718  0.84899972  0.02083965     0.10570
S2008       S  0.62408159  0.91435241  0.44132315    -0.32780
S2009       S  0.63471214  0.82272162  0.05114092    -0.32790
H2010       H  0.65548429  0.83929425  0.06784267     0.28580
H2011       H  0.63251020  0.93986524  0.45780231     0.28580
H2012       H  0.59051141  0.86349303  0.45772074     0.19170
H2013       H  0.66887631  0.87364191  0.03447893     0.19180
C2014       C  0.61168308  0.66071891  0.49843627    -0.06650
C2015       C  0.62926767  0.65801584  0.02414439    -0.17780
C2016       C  0.65216799  0.63695333  0.02607070     0.10540
C2017       C  0.65734373  0.61708741  0.50183200    -0.06580
C2018       C  0.64007270  0.62008300  0.47586147    -0.17820
C2019       C  0.61768344  0.64176497  0.47376630     0.10570
S2020       S  0.67584016  0.63829755  0.05865075    -0.32780
S2021       S  0.59697265  0.64332768  0.43945814    -0.32790
H2022       H  0.60743615  0.67215357  0.43250938     0.28580
H2023       H  0.65728977  0.65604602  0.07674722     0.28580
H2024       H  0.62578628  0.67325950  0.04261958     0.19170
H2025       H  0.64395688  0.60532323  0.45699158     0.19180
C2026       C  0.88203977  0.00589887  0.33781287    -0.06650
C2027       C  0.88148941  0.98152683  0.35757547    -0.17780
C2028       C  0.86154713  0.98053886  0.38162995     0.10540
C2029       C  0.84131891  0.00435138  0.38607665    -0.06580
C2030       C  0.84179220  0.52853387  0.36619183    -0.17820
C2031       C  0.86121586  0.52927070  0.34190613     0.10570
S2032       S  0.86386204  0.94883202  0.40629361    -0.32780
S2033       S  0.85600029  0.55936479  0.31575114    -0.32790
H2034       H  0.85965934  0.54110604  0.29031040     0.28580
H2035       H  0.85840381  0.96534090  0.43256523     0.28580
H2036       H  0.89720045  0.96339749  0.35470289     0.19170
H2037       H  0.82584587  0.54649504  0.36863437     0.19180
C2038       C  0.65539255  0.50217047  0.38468466    -0.06650
C2039       C  0.63638168  0.52686925  0.38160687    -0.17780
C2040       C  0.61285666  0.52655019  0.36117219     0.10540
C2041       C  0.60784964  0.00095918  0.34315028    -0.06580
C2042       C  0.62639177  0.97604283  0.34667558    -0.17820
C2043       C  0.65002053  0.97622952  0.36701898     0.10570
S2044       S  0.58918520  0.55893169  0.36013805    -0.32780
S2045       S  0.67363311  0.94349265  0.36848511    -0.32790
H2046       H  0.65580352  0.92436187  0.35106136     0.28580
H2047       H  0.60106092  0.56862817  0.33276462     0.28580
H2048       H  0.63967480  0.54661549  0.39531491     0.19170
H2049       H  0.62300105  0.95656528  0.33268056     0.19180
C2050       C  0.65266682  0.49766429  0.10947060    -0.06650
C2051       C  0.65009515  0.97212685  0.12739157    -0.17780
C2052       C  0.63058214  0.97107527  0.15153489     0.10540
C2053       C  0.61164080  0.49570077  0.15746252    -0.06580
C2054       C  0.61419891  0.52136794  0.13955640    -0.17820
C2055       C  0.63432731  0.52262032  0.11570011     0.10570
S2056       S  0.63362624  0.93866886  0.17514526    -0.32780
S2057       S  0.63476591  0.55633818  0.09372249    -0.32790
H2058       H  0.63796822  0.54140702  0.06616354     0.28580
H2059       H  0.63271619  0.95533889  0.20188689     0.28580
H2060       H  0.66458409  0.95315771  0.12367005     0.19170
H2061       H  0.59999325  0.54048102  0.14379296     0.19180
C2062       C  0.88687502  0.50114953  0.15167243    -0.06650
C2063       C  0.86778829  0.97629334  0.15234914    -0.17780
C2064       C  0.84371929  0.97370600  0.13282898     0.10540
C2065       C  0.83874023  0.99610747  0.11116733    -0.06580
C2066       C  0.85817361  0.52065391  0.10999465    -0.17820
C2067       C  0.88235017  0.52319054  0.12950952     0.10570
S2068       S  0.81910402  0.94253479  0.13876776    -0.32780
S2069       S  0.90723097  0.55413331  0.12352443    -0.32790
H2070       H  0.93304958  0.53773759  0.13001627     0.28580
H2071       H  0.79311469  0.95965150  0.13567056     0.28580
H2072       H  0.87076544  0.95921469  0.16920555     0.19170
H2073       H  0.85492278  0.53774570  0.09318807     0.19180
C2074       C  0.49913255  0.65797083  0.38526246    -0.06650
C2075       C  0.50361253  0.66643725  0.35552248    -0.17780
C2076       C  0.50286526  0.64524772  0.33248286     0.10540
C2077       C  0.99772941  0.61491458  0.33940348    -0.06580
C2078       C  0.99319343  0.60641524  0.36914633    -0.17820
C2079       C  0.99418303  0.62761635  0.39224468     0.10570
S2080       S  0.50906934  0.65826733  0.29488898    -0.32780
S2081       S  0.98968516  0.61442087  0.43000915    -0.32790
H2082       H  0.00627849  0.63707603  0.44407547     0.28580
H2083       H  0.49129269  0.63677749  0.28049934     0.28580
H2084       H  0.50753245  0.68975940  0.35021539     0.19170
H2085       H  0.98963105  0.58304004  0.37445797     0.19180
C2086       C  0.99220971  0.88798775  0.34003474    -0.06650
C2087       C  0.98800311  0.89630586  0.36994393    -0.17780
C2088       C  0.99089962  0.87531225  0.39288385     0.10540
C2089       C  0.99670388  0.84510850  0.38563331    -0.06580
C2090       C  0.50103214  0.83681257  0.35572793    -0.17820
C2091       C  0.49901317  0.85795143  0.33285247     0.10570
S2092       S  0.98836367  0.88877579  0.43082489    -0.32780
S2093       S  0.50556506  0.84523272  0.29509638    -0.32790
H2094       H  0.48670641  0.86590003  0.28108690     0.28580
H2095       H  0.00618018  0.86659494  0.44386718     0.28580
H2096       H  0.98357255  0.91951096  0.37552786     0.19170
H2097       H  0.50584440  0.81368080  0.35016578     0.19180
C2098       C  0.99489895  0.84364543  0.11092702    -0.06650
C2099       C  0.98361059  0.87210599  0.10439584    -0.17780
C2100       C  0.98481848  0.89526123  0.12555172     0.10540
C2101       C  0.49696068  0.88962228  0.15404288    -0.06580
C2102       C  0.50859444  0.86128138  0.16041094    -0.17820
C2103       C  0.50731789  0.83813145  0.13932315     0.10570
S2104       S  0.97149914  0.93167610  0.11457732    -0.32780
S2105       S  0.52033320  0.80169706  0.15056604    -0.32790
H2106       H  0.99916869  0.78528457  0.13422193     0.28580
H2107       H  0.99078698  0.94824690  0.13299781     0.28580
H2108       H  0.97437513  0.87647091  0.08248403     0.19170
H2109       H  0.51757577  0.85679240  0.18240762     0.19180
C2110       C  0.49800640  0.65638138  0.10767547    -0.06650
C2111       C  0.52141188  0.65759198  0.12831698    -0.17780
C2112       C  0.52342181  0.63723860  0.15185455     0.10540
C2113       C  0.50204949  0.61422656  0.15448946    -0.06580
C2114       C  0.97893972  0.61265247  0.13354385    -0.17820
C2115       C  0.97690695  0.63306439  0.10998814     0.10570
S2116       S  0.55227075  0.64379992  0.17895763    -0.32780
S2117       S  0.94786819  0.62688038  0.08297099    -0.32790
H2118       H  0.96492148  0.63571524  0.05821664     0.28580
H2119       H  0.53399117  0.63832466  0.20381319     0.28580
H2120       H  0.53758400  0.67546693  0.12700610     0.19170
H2121       H  0.96267356  0.59490393  0.13513725     0.19180
C2122       C  0.58903462  0.49558509  0.68160977     0.41930
N2123       N  0.56046814  0.51108445  0.71686412     0.00820
C2124       C  0.96594477  0.92439070  0.80258522    -0.07060
H2125       H  0.94626846  0.92205862  0.68526007     0.06310
C2126       C  0.92179522  0.53017307  0.69014178    -0.07410
Co2127     Co  0.53255820  0.95996497  0.74939716     0.74180
N2128       N  0.97925142  0.94051813  0.71512753    -0.26590
Co2129     Co  0.95600631  0.96533081  0.74690711     0.74070
C2130       C  0.90991424  0.50338387  0.67531449     0.42030
N2131       N  0.98769023  0.56360682  0.71424156     0.00430
N2132       N  0.93605711  0.99032073  0.71326752     0.00540
N2133       N  0.51606760  0.92111987  0.80265558    -0.47440
H2134       H  0.57604052  0.94637126  0.69049378     0.06290
N2135       N  0.50837940  0.93804241  0.71627773     0.00820
N2136       N  0.93357770  0.99125792  0.77857933     0.00560
C2137       C  0.90469720  0.00627782  0.81374260     0.42170
N2138       N  0.51684914  0.56135789  0.71501981    -0.26050
C2139       C  0.57192965  0.97283930  0.80561516    -0.06970
N2140       N  0.57899565  0.52037770  0.69586608    -0.47150
N2141       N  0.91507576  0.98166190  0.79947531    -0.47380
C2142       C  0.58440689  0.99963724  0.81988041     0.41940
N2143       N  0.50643947  0.93902287  0.78127900     0.00810
N2144       N  0.51499596  0.56236947  0.77993008    -0.26070
N2145       N  0.55780381  0.98170490  0.71730943    -0.26560
N2146       N  0.98578454  0.56415963  0.77945869     0.00450
H2147       H  0.54832065  0.58280428  0.80802918     0.06340
H2148       H  0.91671267  0.55571614  0.80498633     0.06370
N2149       N  0.97724861  0.94108191  0.78047835    -0.26610
N2150       N  0.93786647  0.51977569  0.71309959    -0.26220
N2151       N  0.55820367  0.51252668  0.78201092     0.00810
C2152       C  0.49576914  0.91189888  0.67824516     0.42210
C2153       C  0.52833784  0.57800990  0.69306791    -0.07470
N2154       N  0.93598583  0.52068034  0.77825792    -0.26220
H2155       H  0.91818086  0.55356286  0.68532151     0.06360
N2156       N  0.51917492  0.92060330  0.69488045    -0.47440
H2157       H  0.55170716  0.58074752  0.68853455     0.06350
C2158       C  0.99879952  0.59156220  0.81638698     0.42050
C2159       C  0.57439232  0.96997127  0.69546709    -0.06970
Co2160     Co  0.53814617  0.53726969  0.74837725     0.73790
N2161       N  0.97828860  0.58154742  0.69276615    -0.47160
C2162       C  0.99179837  0.91145521  0.81722031     0.42310
N2163       N  0.57514126  0.52326718  0.80370798    -0.47150
Co2164     Co  0.96141033  0.54258355  0.74625640     0.73890
C2165       C  0.91901149  0.53215370  0.79999505    -0.07480
C2166       C  0.96923012  0.92470786  0.69169099    -0.07040
N2167       N  0.55606463  0.98308552  0.78247965    -0.26570
N2168       N  0.91939232  0.97968494  0.69133862    -0.47330
H2169       H  0.94264674  0.92084012  0.80702144     0.06320
C2170       C  0.52526694  0.57924632  0.80246914    -0.07450
Cl2171     Cl  0.49702019  0.50129839  0.74775607    -0.50460
C2172       C  0.50269732  0.59170550  0.67859822     0.42080
H2173       H  0.57486675  0.94951649  0.81126542     0.06290
N2174       N  0.97512382  0.58170888  0.80082971    -0.47170
C2175       C  0.49590041  0.68066129  0.58537000     0.41930
N2176       N  0.50862967  0.71849414  0.55892500     0.00820
C2177       C  0.91902132  0.80568422  0.96921028    -0.07060
H2178       H  0.91694951  0.68986497  0.94547761     0.06310
C2179       C  0.52568359  0.69670054  0.91971566    -0.07410
Co2180     Co  0.95636225  0.75079492  0.53386050     0.74180
N2181       N  0.93671161  0.71785026  0.97926142    -0.26590
Co2182     Co  0.96017385  0.75104370  0.95658857     0.74070
C2183       C  0.49960570  0.68139311  0.90822546     0.42030
N2184       N  0.55922410  0.71956335  0.98511851     0.00430
N2185       N  0.98556498  0.71862815  0.93476951     0.00540
N2186       N  0.91643047  0.80439300  0.51970300    -0.47440
H2187       H  0.94619116  0.69044829  0.57795380     0.06290
N2188       N  0.93561181  0.71765679  0.50868965     0.00820
N2189       N  0.98472328  0.78431092  0.93511815     0.00560
C2190       C  0.99786207  0.82168069  0.90848531     0.42170
N2191       N  0.55743295  0.71961282  0.51451889    -0.26050
C2192       C  0.96784526  0.80631229  0.57484285    -0.06970
N2193       N  0.51937515  0.69656498  0.57549574    -0.47150
N2194       N  0.97413512  0.80613988  0.91823337    -0.47380
C2195       C  0.99408763  0.82043293  0.58759903     0.41940
N2196       N  0.93406563  0.78314550  0.50908095     0.00810
N2197       N  0.55629739  0.78481147  0.51510646    -0.26070
N2198       N  0.97943888  0.71838679  0.55773454    -0.26560
N2199       N  0.55828971  0.78493886  0.98570951     0.00450
H2200       H  0.57455997  0.81295305  0.54953732     0.06340
H2201       H  0.54738922  0.81252902  0.91640644     0.06370
N2202       N  0.93576153  0.78327952  0.97964681    -0.26610
N2203       N  0.51479600  0.71926422  0.93616351    -0.26220
N2204       N  0.50771958  0.78388951  0.55985331     0.00810
C2205       C  0.90999248  0.67920749  0.99555966     0.42210
C2206       C  0.57451051  0.69762162  0.52514434    -0.07470
N2207       N  0.51396894  0.78442348  0.93650461    -0.26220
H2208       H  0.54889070  0.69181481  0.91612814     0.06360
N2209       N  0.91976145  0.69518108  0.51928235    -0.47440
H2210       H  0.57783852  0.69271763  0.54854823     0.06350
C2211       C  0.58550841  0.82173395  0.99992729     0.42050
C2212       C  0.96929240  0.69549340  0.57406789    -0.06970
Co2213     Co  0.53291003  0.75171023  0.53759772     0.73820
N2214       N  0.57727085  0.69851754  0.97474719    -0.47160
C2215       C  0.90658203  0.81986474  0.99584186     0.42310
N2216       N  0.51797961  0.80525048  0.57765952    -0.47150
Co2217     Co  0.53707379  0.75206440  0.96035764     0.73890
C2218       C  0.52430305  0.80713108  0.92004114    -0.07480
C2219       C  0.92078560  0.69467252  0.96883128    -0.07040
N2220       N  0.97851373  0.78378185  0.55810871    -0.26570
N2221       N  0.97549474  0.69640058  0.91790133    -0.47330
H2222       H  0.91537820  0.81078583  0.94590182     0.06320
C2223       C  0.57227720  0.80755543  0.52609726    -0.07450
Cl2224     Cl  0.99662574  0.75145057  0.99709366    -0.50460
C2225       C  0.58763414  0.68349756  0.99872519     0.42080
H2226       H  0.94468215  0.81137268  0.57850535     0.06290
N2227       N  0.57560646  0.80663486  0.97566864    -0.47170
C2228       C  0.81272042  0.90748112  0.99537357     0.41930
N2229       N  0.77774945  0.93697584  0.50862370     0.00820
C2230       C  0.69402585  0.53090324  0.91971926    -0.07060
H2231       H  0.80894295  0.55412120  0.91997198     0.06310
C2232       C  0.80265312  0.57599638  0.53002341    -0.07410
Co2233     Co  0.74781375  0.96499251  0.95631022     0.74180
N2234       N  0.78108258  0.51972826  0.93853282    -0.26590
Co2235     Co  0.74836332  0.54255876  0.96248390     0.74070
C2236       C  0.81716197  0.58991672  0.00435952     0.42030
N2237       N  0.77816086  0.51000648  0.56159787     0.00430
N2238       N  0.78049954  0.56323679  0.98904903     0.00540
N2239       N  0.69548773  0.98046437  0.91686464    -0.47440
H2240       H  0.80612894  0.91841580  0.94557011     0.06290
N2241       N  0.78119319  0.99025435  0.93620421     0.00820
N2242       N  0.71588534  0.56450339  0.98770882     0.00560
C2243       C  0.68064143  0.59350728  0.00238534     0.42170
N2244       N  0.77768554  0.98059351  0.55898586    -0.26050
C2245       C  0.69138411  0.92524978  0.96604996    -0.06970
N2246       N  0.79760990  0.91796102  0.51921306    -0.47150
N2247       N  0.69545522  0.58347052  0.97799537    -0.47380
C2248       C  0.67547629  0.91381097  0.99216871     0.41940
N2249       N  0.71650070  0.99096635  0.93456871     0.00810
N2250       N  0.71301463  0.98204120  0.55727833    -0.26070
N2251       N  0.77882809  0.93943614  0.97927627    -0.26560
N2252       N  0.71342792  0.51141427  0.56004430     0.00450
H2253       H  0.68450936  0.94785315  0.57505969     0.06340
H2254       H  0.68809179  0.57993964  0.55160916     0.06370
N2255       N  0.71626801  0.52042582  0.93674635    -0.26610
N2256       N  0.78004578  0.56038715  0.51836831    -0.26220
N2257       N  0.71321462  0.93922921  0.50678542     0.00810
C2258       C  0.81841583  0.00438310  0.90986469     0.42210
C2259       C  0.79962877  0.96912480  0.57557215    -0.07470
N2260       N  0.71548591  0.56162114  0.51701731    -0.26220
H2261       H  0.80778079  0.57755277  0.55355178     0.06360
N2262       N  0.80289342  0.98015762  0.91889264    -0.47440
H2263       H  0.80467584  0.94557993  0.57760370     0.06350
C2264       C  0.67584925  0.49760852  0.58597566     0.42050
C2265       C  0.80056424  0.92182770  0.96884916    -0.06970
Co2266     Co  0.74543768  0.95922534  0.53329371     0.73820
N2267       N  0.79940550  0.51962630  0.57966045    -0.47160
C2268       C  0.68032655  0.50413747  0.90638768     0.42310
N2269       N  0.69068918  0.92307343  0.51646376    -0.47150
Co2270     Co  0.74679998  0.53625001  0.53974083     0.73890
C2271       C  0.69359949  0.57842566  0.52819399    -0.07480
C2272       C  0.80377360  0.53064897  0.92268838    -0.07040
N2273       N  0.71419068  0.94094466  0.97741152    -0.26570
N2274       N  0.80231665  0.58069738  0.97974723    -0.47330
H2275       H  0.68867870  0.55426859  0.91653899     0.06320
C2276       C  0.69007089  0.97127715  0.57280200    -0.07450
Cl2277     Cl  0.74715335  0.50077457  0.99794656    -0.50460
C2278       C  0.81377859  0.99510163  0.58962934     0.42080
H2279       H  0.68700113  0.92193104  0.94252961     0.06290
N2280       N  0.69185151  0.52166415  0.57739625    -0.47170
C2281       C  0.83654275  0.88493612  0.99643989    -0.06650
C2282       C  0.86119879  0.88898589  0.97790296    -0.17780
C2283       C  0.88489554  0.86887873  0.97824039     0.10540
C2284       C  0.88380996  0.84356665  0.99699574    -0.06580
C2285       C  0.85936408  0.83975344  0.51598143    -0.17820
C2286       C  0.83555560  0.85986326  0.51558553     0.10570
S2287       S  0.91636045  0.87770063  0.95524614    -0.32780
S2288       S  0.80378858  0.85102246  0.53832796    -0.32790
H2289       H  0.78274826  0.85989052  0.51690710     0.28580
H2290       H  0.93757742  0.86609578  0.97511445     0.28580
H2291       H  0.86236956  0.90841358  0.96355583     0.19170
H2292       H  0.85814388  0.82022175  0.53019764     0.19180
C2293       C  0.88832160  0.65427934  0.99805448    -0.06650
C2294       C  0.87075816  0.65319126  0.52393608    -0.17780
C2295       C  0.84755521  0.63268469  0.52687527     0.10540
C2296       C  0.84192861  0.61178030  0.00367869    -0.06580
C2297       C  0.86023882  0.61205808  0.97829101    -0.17820
C2298       C  0.88355705  0.63256167  0.97543224     0.10570
S2299       S  0.82473195  0.63666527  0.55965006    -0.32780
S2300       S  0.90715569  0.62836403  0.94325572    -0.32790
H2301       H  0.93327736  0.63542187  0.95892026     0.28580
H2302       H  0.79792980  0.63533147  0.54361526     0.28580
H2303       H  0.87410426  0.66950382  0.54160556     0.19170
H2304       H  0.85667704  0.59576059  0.96063870     0.19180
C2305       C  0.60809065  0.84578776  0.99884116    -0.06650
C2306       C  0.60768079  0.86560954  0.97454163    -0.17780
C2307       C  0.62857810  0.88869661  0.97195557     0.10540
C2308       C  0.65117327  0.89155633  0.99369330    -0.06580
C2309       C  0.65137634  0.87185555  0.51802356    -0.17820
C2310       C  0.63039709  0.84899982  0.52083973     0.10570
S2311       S  0.62408157  0.91435247  0.94132321    -0.32780
S2312       S  0.63471201  0.82272180  0.55114108    -0.32790
H2313       H  0.65548407  0.83929451  0.56784286     0.28580
H2314       H  0.63251022  0.93986528  0.95780241     0.28580
H2315       H  0.59051139  0.86349307  0.95772076     0.19170
H2316       H  0.66887620  0.87364204  0.53447902     0.19180
C2317       C  0.61168308  0.66071891  0.99843628    -0.06650
C2318       C  0.62926770  0.65801587  0.52414437    -0.17780
C2319       C  0.65216802  0.63695335  0.52607068     0.10540
C2320       C  0.65734373  0.61708742  0.00183200    -0.06580
C2321       C  0.64007273  0.62008303  0.97586146    -0.17820
C2322       C  0.61768347  0.64176500  0.97376629     0.10570
S2323       S  0.67584022  0.63829760  0.55865070    -0.32780
S2324       S  0.59697272  0.64332775  0.93945810    -0.32790
H2325       H  0.60743623  0.67215364  0.93250940     0.28580
H2326       H  0.65728989  0.65604613  0.57674716     0.28580
H2327       H  0.62578633  0.67325955  0.54261955     0.19170
H2328       H  0.64395693  0.60532328  0.95699156     0.19180
C2329       C  0.88203977  0.00589885  0.83781288    -0.06650
C2330       C  0.88148943  0.98152682  0.85757549    -0.17780
C2331       C  0.86154715  0.98053886  0.88162997     0.10540
C2332       C  0.84131892  0.00435138  0.88607667    -0.06580
C2333       C  0.84179221  0.52853389  0.86619182    -0.17820
C2334       C  0.86121588  0.52927072  0.84190613     0.10570
S2335       S  0.86386207  0.94883203  0.90629365    -0.32780
S2336       S  0.85600031  0.55936481  0.81575114    -0.32790
H2337       H  0.85965936  0.54110606  0.79031040     0.28580
H2338       H  0.85840384  0.96534092  0.93256526     0.28580
H2339       H  0.89720047  0.96339749  0.85470292     0.19170
H2340       H  0.82584588  0.54649505  0.86863436     0.19180
C2341       C  0.65539255  0.50217048  0.88468464    -0.06650
C2342       C  0.63638169  0.52686926  0.88160686    -0.17780
C2343       C  0.61285667  0.52655020  0.86117218     0.10540
C2344       C  0.60784965  0.00095917  0.84315029    -0.06580
C2345       C  0.62639174  0.97604280  0.84667563    -0.17820
C2346       C  0.65002049  0.97622949  0.86701905     0.10570
S2347       S  0.58918522  0.55893170  0.86013802    -0.32780
S2348       S  0.67363301  0.94349257  0.86848523    -0.32790
H2349       H  0.65580338  0.92436179  0.85106154     0.28580
H2350       H  0.60106094  0.56862818  0.83276460     0.28580
H2351       H  0.63967482  0.54661550  0.89531490     0.19170
H2352       H  0.62300099  0.95656524  0.83268064     0.19180
C2353       C  0.65266685  0.49766430  0.60947065    -0.06650
C2354       C  0.65009525  0.97212692  0.62739167    -0.17780
C2355       C  0.63058225  0.97107535  0.65153500     0.10540
C2356       C  0.61164086  0.49570085  0.65746257    -0.06580
C2357       C  0.61419882  0.52136793  0.63955632    -0.17820
C2358       C  0.63432722  0.52262027  0.61570002     0.10570
S2359       S  0.63362643  0.93866902  0.67514548    -0.32780
S2360       S  0.63476564  0.55633800  0.59372218    -0.32790
H2361       H  0.63796811  0.54140671  0.56616333     0.28580
H2362       H  0.63271627  0.95533914  0.70188705     0.28580
H2363       H  0.66458424  0.95315780  0.62367020     0.19170
H2364       H  0.59999306  0.54048094  0.64379276     0.19180
C2365       C  0.88687502  0.50114955  0.65167244    -0.06650
C2366       C  0.86778828  0.97629333  0.65234914    -0.17780
C2367       C  0.84371928  0.97370599  0.63282897     0.10540
C2368       C  0.83874023  0.99610746  0.61116733    -0.06580
C2369       C  0.85817359  0.52065392  0.60999466    -0.17820
C2370       C  0.88235016  0.52319056  0.62950954     0.10570
S2371       S  0.81910401  0.94253478  0.63876775    -0.32780
S2372       S  0.90723095  0.55413335  0.62352445    -0.32790
H2373       H  0.93304956  0.53773764  0.63001628     0.28580
H2374       H  0.79311468  0.95965149  0.63567055     0.28580
H2375       H  0.87076543  0.95921467  0.66920555     0.19170
H2376       H  0.85492276  0.53774572  0.59318809     0.19180
C2377       C  0.49913251  0.65797081  0.88526248    -0.06650
C2378       C  0.50361248  0.66643724  0.85552250    -0.17780
C2379       C  0.50286521  0.64524771  0.83248288     0.10540
C2380       C  0.99772944  0.61491464  0.83940347    -0.06580
C2381       C  0.99319344  0.60641531  0.86914632    -0.17820
C2382       C  0.99418306  0.62761643  0.89224467     0.10570
S2383       S  0.50906927  0.65826732  0.79488900    -0.32780
S2384       S  0.98968517  0.61442097  0.93000914    -0.32790
H2385       H  0.00627853  0.63707611  0.94407544     0.28580
H2386       H  0.49129263  0.63677747  0.78049936     0.28580
H2387       H  0.50753238  0.68975939  0.85021541     0.19170
H2388       H  0.98963105  0.58304012  0.87445797     0.19180
C2389       C  0.99220976  0.88798776  0.84003475    -0.06650
C2390       C  0.98800313  0.89630589  0.86994393    -0.17780
C2391       C  0.99089963  0.87531230  0.89288387     0.10540
C2392       C  0.99670393  0.84510855  0.88563335    -0.06580
C2393       C  0.50103217  0.83681255  0.85572790    -0.17820
C2394       C  0.49901321  0.85795141  0.83285244     0.10570
S2395       S  0.98836366  0.88877587  0.93082490    -0.32780
S2396       S  0.50556513  0.84523271  0.79509635    -0.32790
H2397       H  0.48670648  0.86590000  0.78108687     0.28580
H2398       H  0.00618017  0.86659504  0.94386721     0.28580
H2399       H  0.98357253  0.91951099  0.87552783     0.19170
H2400       H  0.50584444  0.81368078  0.85016576     0.19180
C2401       C  0.99489900  0.84364549  0.61092695    -0.06650
C2402       C  0.98361064  0.87210605  0.60439578    -0.17780
C2403       C  0.98481853  0.89526127  0.62555169     0.10540
C2404       C  0.49696068  0.88962228  0.65404287    -0.06580
C2405       C  0.50859443  0.86128138  0.66041095    -0.17820
C2406       C  0.50731786  0.83813143  0.63932317     0.10570
S2407       S  0.97149919  0.93167615  0.61457730    -0.32780
S2408       S  0.52033314  0.80169704  0.65056608    -0.32790
H2409       H  0.99916871  0.78528460  0.63422183     0.28580
H2410       H  0.99078702  0.94824694  0.63299782     0.28580
H2411       H  0.97437521  0.87647098  0.58248397     0.19170
H2412       H  0.51757575  0.85679240  0.68240764     0.19180
C2413       C  0.49800639  0.65638137  0.60767547    -0.06650
C2414       C  0.52141186  0.65759198  0.62831698    -0.17780
C2415       C  0.52342179  0.63723861  0.65185457     0.10540
C2416       C  0.50204947  0.61422656  0.65448948    -0.06580
C2417       C  0.97893974  0.61265251  0.63354385    -0.17820
C2418       C  0.97690697  0.63306443  0.60998814     0.10570
S2419       S  0.55227071  0.64379995  0.67895766    -0.32780
S2420       S  0.94786824  0.62688041  0.58297098    -0.32790
H2421       H  0.96492153  0.63571529  0.55821664     0.28580
H2422       H  0.53399112  0.63832468  0.70381321     0.28580
H2423       H  0.53758398  0.67546694  0.62700611     0.19170
H2424       H  0.96267359  0.59490396  0.63513724     0.19180
loop_ 
_geom_bond_atom_site_label_1 
_geom_bond_atom_site_label_2 
_geom_bond_distance 
_geom_bond_site_symmetry_2 
_ccdc_geom_bond_type 
C1           N19   1.354   1_565  A
C1          C235   1.486       .  S
C1          C644   1.462       .  S
N2           N19   1.326       .  A
N2          N630   1.318   1_545  A
N2          Co39   2.087       .  S
C3           N28   1.342       .  A
C3           C41   1.458       .  S
C3           H48   1.081       .  S
H4           C45   1.081       .  S
C5           N29   1.342       .  A
C5            C9   1.467       .  S
C5           H34   1.080       .  S
Co6          N24   2.077       .  S
Co6          N14   2.081       .  S
Co6          N46   2.090       .  S
Co6          N22   2.077       .  S
Co6        Cl656   2.447   1_455  S
N7           C45   1.340       .  A
N7         N1226   1.320       .  A
N7           Co8   2.083       .  S
Co8          N11   2.083       .  S
Co8          N28   2.089       .  S
Co8          N15   2.088       .  S
Co8       Cl1868   2.450       .  S
C9          N653   1.351   1_545  A
C9          C244   1.486       .  S
N10          N40   1.324       .  A
N10        N1229   1.320       .  A
N10         Co43   2.086       .  S
N11          N47   1.323       .  A
N11         N635   1.318       .  A
N12        C1253   1.346   1_455  A
N12          N22   1.323       .  A
H13          C38   1.079       .  S
N14          N35   1.325       .  A
N14        N1219   1.320   1_455  A
N15          N20   1.326       .  A
N15         N639   1.319       .  A
C16          N20   1.353       .  A
C16         C208   1.485       .  S
C16         C650   1.462       .  S
N17          C32   1.339       .  A
N17        N1222   1.320   1_455  A
N17         Co39   2.079       .  S
C18          N46   1.341       .  A
C18          C21   1.466       .  S
C18          H52   1.081       .  S
C21         N648   1.349       .  A
C21         C223   1.485       .  S
N22        N1240   1.321   1_455  A
N23          C49   1.339       .  A
N23        N1237   1.320   1_455  A
N23         Co39   2.080       .  S
N24          C38   1.336       .  A
N24         N608   1.318       .  A
N25          N53   1.324       .  A
N25        N1235   1.320       .  A
N25         Co43   2.081       .  S
H26          C49   1.081       .  S
H27          C44   1.080       .  S
N28        N1234   1.321       .  A
N29         N617   1.318   1_545  A
N29         Co43   2.086       .  S
N30          N42   1.324       .  A
N30         N652   1.319   1_545  A
N30         Co39   2.079       .  S
C31          N35   1.348   1_655  A
C31         C283   1.468       .  S
C31        C1257   1.456       .  S
C32          C51   1.461       .  S
C32          H36   1.081       .  S
N33          C44   1.338       .  A
N33         N621   1.319   1_545  A
N33         Co43   2.083       .  S
C37          N53   1.348       .  A
C37         C259   1.463       .  S
C37        C1261   1.454       .  S
C38         C607   1.462       .  S
Co39        Cl50   2.454   1_455  S
N40        C1263   1.350       .  A
C41        N1224   1.346       .  A
C41         C268   1.467       .  S
N42         C627   1.349   1_545  A
Co43      Cl1262   2.447       .  S
C44         C622   1.462       .  S
C45        C1243   1.456       .  S
N46         N636   1.319       .  A
N47         C615   1.351       .  A
C49        C1249   1.454   1_455  S
Cl50       Co612   2.447   1_645  S
Cl50      Co1826   2.450   1_545  S
Cl50      Co1255   2.447       .  S
C51        N1252   1.350   1_455  A
C51         C295   1.479       .  S
C54          N72   1.351   1_655  A
C54         C292   1.480       .  S
C54        C1303   1.462       .  S
N55          N72   1.323       .  A
N55        N1289   1.318   1_455  A
N55         Co92   2.080       .  S
C56          N81   1.340       .  A
C56          C94   1.459       .  S
C56         H101   1.081       .  S
H57          C98   1.080       .  S
C58          N82   1.339       .  A
C58          C62   1.453   1_455  S
C58          H87   1.081       .  S
Co59         N77   2.082       .  S
Co59         N67   2.078       .  S
Co59         N99   2.081       .  S
Co59         N75   2.084       .  S
Co59       Cl406   2.451   1_554  S
N60          C98   1.342       .  A
N60         N370   1.318       .  A
N60         Co61   2.089       .  S
Co61         N64   2.086       .  S
Co61         N81   2.083       .  S
Co61         N68   2.091       .  S
Co61       Cl103   2.447       .  S
C62        N1312   1.348       .  A
C62         C256   1.463       .  S
N63          N93   1.326       .  A
N63         N373   1.318       .  A
N63         Co96   2.085       .  S
N64         N100   1.325       .  A
N64        N1294   1.320       .  A
N65         C397   1.350   1_554  A
N65          N75   1.325       .  A
H66          C91   1.081       .  S
N67          N88   1.322       .  A
N67         N363   1.318   1_554  A
N68          N73   1.325       .  A
N68        N1298   1.321       .  A
C69          N73   1.349       .  A
C69         C271   1.468       .  S
C69        C1309   1.455       .  S
N70          C85   1.338       .  A
N70         N366   1.318   1_554  A
N70         Co92   2.082       .  S
C71          N99   1.341       .  A
C71          C74   1.456       .  S
C71         H105   1.082       .  S
C74        N1307   1.348       .  A
C74         C280   1.468       .  S
N75         N384   1.320   1_554  A
N76         C102   1.337       .  A
N76         N381   1.319   1_554  A
N76         Co92   2.080       .  S
N77          C91   1.340       .  A
N77        N1267   1.318       .  A
N78         N106   1.325       .  A
N78         N379   1.319       .  A
N78         Co96   2.084       .  S
H79         C102   1.080       .  S
H80          C97   1.081       .  S
N81         N378   1.320       .  A
N82        N1276   1.320   1_455  A
N82         Co96   2.077       .  S
N83          N95   1.324       .  A
N83        N1311   1.320   1_455  A
N83         Co92   2.083       .  S
C84         N391   1.350       .  A
C84          C98   1.467       .  S
C84         C172   1.486       .  S
C85         C407   1.463   1_554  S
C85          H89   1.082       .  S
N86          C97   1.340       .  A
N86        N1280   1.321   1_455  A
N86         Co96   2.081       .  S
N88         C387   1.350   1_554  A
C90         N106   1.351       .  A
C90         C184   1.481       .  S
C90         C405   1.462       .  S
C91        C1266   1.462       .  S
Co92      Cl1618   2.442   1_454  S
N93         C104   1.352       .  A
C94         N368   1.350       .  A
C94         C163   1.476       .  S
N95        C1286   1.348   1_455  A
Co96      Cl1315   2.457   1_455  S
C97        C1281   1.455   1_455  S
N99        N1295   1.320       .  A
N100       C1274   1.348       .  A
C102        C393   1.462   1_554  S
Cl103      Co362   2.451       .  S
Cl103     Co1607   2.442       .  S
Cl103     Co1308   2.457       .  S
C104        C196   1.487       .  S
C104        C388   1.463       .  S
C107        N428   1.348       .  A
C107        C144   1.459       .  S
C107        C160   1.474       .  S
N108        N125   1.324       .  A
N108        N433   1.319   1_554  A
N108       Co145   2.079       .  S
C109        N134   1.345       .  A
C109        C147   1.470       .  S
C109        H154   1.081       .  S
H110        C151   1.081       .  S
C111        N135   1.340       .  A
C111        C418   1.463       .  S
C111        H140   1.080       .  S
Co112       N130   2.080       .  S
Co112       N120   2.088       .  S
Co112       N152   2.087       .  S
Co112       N128   2.073       .  S
Co112      Cl762   2.449       .  S
N113        C151   1.339       .  A
N113        N726   1.320   1_545  A
N113       Co114   2.088       .  S
Co114       N117   2.087       .  S
Co114       N134   2.095       .  S
Co114       N121   2.091       .  S
Co114      Cl156   2.456       .  S
C115        N153   1.352       .  A
C115        C175   1.484       .  S
C115        C414   1.463       .  S
N116        N146   1.324       .  A
N116        N729   1.319   1_545  A
N116       Co149   2.084       .  S
N117        N153   1.324       .  A
N117        N438   1.319       .  A
N118        C753   1.346       .  A
N118        N128   1.320       .  A
H119        C144   1.082       .  S
N120        N141   1.326       .  A
N120        N719   1.320       .  A
N121        N126   1.327       .  A
N121        N442   1.319       .  A
C122        N126   1.355       .  A
C122        C199   1.488       .  S
C122        C453   1.462       .  S
N123        C138   1.340       .  A
N123        N722   1.319       .  A
N123       Co145   2.083       .  S
C124        N152   1.343       .  A
C124        C127   1.466       .  S
C124        H158   1.081       .  S
N125        C410   1.348   1_554  A
C127        N451   1.349       .  A
C127        C187   1.482       .  S
N128        N740   1.319       .  A
N129        C155   1.337       .  A
N129        N737   1.317       .  A
N129       Co145   2.079       .  S
N130        C144   1.340       .  A
N130        N411   1.319       .  A
N131        N159   1.326       .  A
N131        N735   1.317   1_545  A
N131       Co149   2.081       .  S
H132        C155   1.081       .  S
H133        C150   1.079       .  S
N134        N734   1.319   1_545  A
N135        N420   1.319   1_554  A
N135       Co149   2.082       .  S
N136        N148   1.321       .  A
N136        N455   1.318   1_554  A
N136       Co145   2.075       .  S
C137        N141   1.352       .  A
C137        C211   1.484       .  S
C137        C757   1.462       .  S
C138        C157   1.464       .  S
C138        H142   1.080       .  S
N139        C150   1.336       .  A
N139        N424   1.319   1_554  A
N139       Co149   2.080       .  S
C143        N159   1.352   1_565  A
C143        C232   1.483       .  S
C143        C761   1.462       .  S
Co145     Cl1065   2.445   1_554  S
N146        C763   1.351   1_545  A
C147        N724   1.346   1_545  A
C147        C220   1.488       .  S
N148        C430   1.349   1_554  A
Co149      Cl459   2.446   1_554  S
C150        C425   1.462       .  S
C151        C743   1.462       .  S
N152        N439   1.318       .  A
C155        C749   1.462       .  S
Cl156      Co718   2.449   1_545  S
Cl156     Co1054   2.445   1_545  S
Cl156      Co452   2.446       .  S
C157        N752   1.351       .  A
C157        C247   1.483       .  S
C160        C161   1.400       .  A
C160        C468   1.414       .  A
C161        H170   1.083       .  S
C161        C162   1.396       .  A
C162        C163   1.412       .  A
C162        S166   1.798       .  S
C163        C467   1.403       .  A
C164        H171   1.084       .  S
C164        C165   1.400       .  A
C164        C466   1.403   1_554  A
C165        C463   1.414   1_554  A
C165        S167   1.803       .  S
S166        H169   1.407       .  S
S167        H168   1.407       .  S
C172        C177   1.415       .  A
C172        C476   1.405       .  A
C173        H182   1.083       .  S
C173        C174   1.397       .  A
C173        C475   1.405   1_554  A
C174        C478   1.416       .  A
C174        S178   1.800       .  S
C175        C176   1.405       .  A
C175        C477   1.416       .  A
C176        H183   1.084       .  S
C176        C177   1.401       .  A
C177        S179   1.800       .  S
S178        H181   1.407       .  S
S179        H180   1.406       .  S
C184        C185   1.406       .  A
C184        C492   1.415       .  A
C185        H194   1.084       .  S
C185        C186   1.402       .  A
C186        C187   1.414       .  A
C186        S190   1.802       .  S
C187        C491   1.403       .  A
C188        H195   1.082       .  S
C188        C189   1.398       .  A
C188        C490   1.403   1_554  A
C189        C487   1.415   1_554  A
C189        S191   1.808       .  S
S190        H193   1.407       .  S
S191        H192   1.407       .  S
C196        C201   1.414       .  A
C196        C500   1.403       .  A
C197        H206   1.080       .  S
C197        C198   1.400       .  A
C197        C499   1.403   1_554  A
C198        C502   1.418       .  A
C198        S202   1.808       .  S
C199        C200   1.406       .  A
C199        C501   1.418       .  A
C200        H207   1.083       .  S
C200        C201   1.403       .  A
C201        S203   1.799       .  S
S202        H205   1.407       .  S
S203        H204   1.407       .  S
C208        C209   1.406       .  A
C208        C819   1.416       .  A
C209        H218   1.083       .  S
C209        C210   1.404       .  A
C210        C211   1.415       .  A
C210        S214   1.803       .  S
C211        C818   1.403       .  A
C212        H219   1.083       .  S
C212        C213   1.397       .  A
C212        C817   1.403       .  A
C213        C814   1.416       .  A
C213        S215   1.802       .  S
S214        H217   1.407       .  S
S215        H216   1.407       .  S
C220        C221   1.405       .  A
C220        C831   1.420   1_545  A
C221        H230   1.082       .  S
C221        C222   1.401       .  A
C222        C829   1.414       .  A
C222        S226   1.799       .  S
C223        C224   1.402       .  A
C223        C828   1.414       .  A
C224        H231   1.080       .  S
C224        C225   1.402       .  A
C225        C826   1.420       .  A
C225        S227   1.811       .  S
S226        H229   1.407       .  S
S227        H228   1.407       .  S
C232        C237   1.415   1_565  A
C232        C839   1.402       .  A
C233        H242   1.082       .  S
C233        C234   1.395       .  A
C233        C838   1.402       .  A
C234        C841   1.417       .  A
C234        S238   1.801       .  S
C235        C236   1.407   1_565  A
C235        C840   1.417       .  A
C236        H243   1.084       .  S
C236        C237   1.403       .  A
C237        S239   1.803       .  S
S238        H241   1.407       .  S
S239        H240   1.407       .  S
C244        C249   1.416       .  A
C244        C851   1.405   1_545  A
C245        H254   1.084       .  S
C245        C246   1.398       .  A
C245        C850   1.405       .  A
C246        C247   1.414       .  A
C246        S250   1.801       .  S
C247        C854   1.405       .  A
C248        H255   1.084       .  S
C248        C249   1.401       .  A
C248        C853   1.405   1_545  A
C249        S251   1.801       .  S
S250        H253   1.407       .  S
S251        H252   1.407       .  S
C256        C257   1.400   1_655  A
C256       C1473   1.411       .  A
C257        H266   1.084       .  S
C257        C258   1.397       .  A
C258       C1471   1.410   1_455  A
C258        S262   1.805       .  S
C259        C260   1.401       .  A
C259       C1470   1.410       .  A
C260        H267   1.084       .  S
C260        C261   1.399       .  A
C261       C1468   1.411       .  A
C261        S263   1.804       .  S
S262        H265   1.405   1_455  S
S263        H264   1.405       .  S
C268        C269   1.401       .  A
C268       C1485   1.412       .  A
C269        H278   1.084       .  S
C269        C270   1.400       .  A
C270        C271   1.411       .  A
C270        S274   1.802       .  S
C271       C1484   1.401       .  A
C272        H279   1.084       .  S
C272        C273   1.399   1_455  A
C272       C1483   1.401   1_455  A
C273       C1480   1.412       .  A
C273        S275   1.805   1_655  S
S274        H277   1.405       .  S
S275        H276   1.405   1_455  S
C280        C281   1.402       .  A
C280       C1497   1.412       .  A
C281        H290   1.084       .  S
C281        C282   1.400       .  A
C282       C1495   1.411       .  A
C282        S286   1.804       .  S
C283        C284   1.401   1_655  A
C283       C1494   1.411       .  A
C284        H291   1.084       .  S
C284        C285   1.398       .  A
C285       C1492   1.412   1_455  A
C285        S287   1.804       .  S
S286        H289   1.407       .  S
S287       H1500   1.407   1_455  S
H288       S1499   1.407       .  S
C292        C293   1.404   1_655  A
C292       C1509   1.415       .  A
C293        H302   1.083       .  S
C293        C294   1.398       .  A
C294        C295   1.414       .  A
C294        S298   1.802       .  S
C295       C1508   1.403   1_455  A
C296        H303   1.083       .  S
C296        C297   1.400       .  A
C296       C1507   1.403       .  A
C297       C1504   1.415       .  A
C297        S299   1.803       .  S
S298        H301   1.407       .  S
S299        H300   1.407       .  S
C304        N322   1.354   1_565  A
C304        C947   1.462       .  S
C304        C538   1.486       .  S
N305        N322   1.326       .  A
N305        N933   1.318   1_545  A
N305       Co342   2.087       .  S
C306        N331   1.342       .  A
C306        C344   1.458       .  S
C306        H351   1.081       .  S
H307        C348   1.081       .  S
C308        N332   1.342       .  A
C308        C312   1.467       .  S
C308        H337   1.080       .  S
Co309       N327   2.077       .  S
Co309       N317   2.081       .  S
Co309       N349   2.090       .  S
Co309       N325   2.077       .  S
Co309      Cl959   2.447   1_455  S
N310        C348   1.340       .  A
N310       N1529   1.320       .  A
N310       Co311   2.083       .  S
Co311       N314   2.083       .  S
Co311       N331   2.089       .  S
Co311       N318   2.088       .  S
Co311     Cl2171   2.450       .  S
C312        N956   1.351   1_545  A
C312        C547   1.486       .  S
N313       N1532   1.320       .  A
N313        N343   1.324       .  A
N313       Co346   2.086       .  S
N314        N938   1.318       .  A
N314        N350   1.323       .  A
N315       C1556   1.346   1_455  A
N315        N325   1.323       .  A
H316        C341   1.079       .  S
N317       N1522   1.320   1_455  A
N317        N338   1.325       .  A
N318        N942   1.319       .  A
N318        N323   1.326       .  A
C319        N323   1.353       .  A
C319        C953   1.462       .  S
C319        C511   1.485       .  S
N320        C335   1.339       .  A
N320       N1525   1.320   1_455  A
N320       Co342   2.079       .  S
C321        N349   1.341       .  A
C321        C324   1.466       .  S
C321        H355   1.081       .  S
C324        N951   1.349       .  A
C324        C526   1.485       .  S
N325       N1543   1.321   1_455  A
N326        C352   1.339       .  A
N326       N1540   1.320   1_455  A
N326       Co342   2.080       .  S
N327        C341   1.336       .  A
N327        N911   1.318       .  A
N328       N1538   1.320       .  A
N328        N356   1.324       .  A
N328       Co346   2.081       .  S
H329        C352   1.081       .  S
H330        C347   1.080       .  S
N331       N1537   1.321       .  A
N332        N920   1.318   1_545  A
N332       Co346   2.086       .  S
N333        N345   1.324       .  A
N333        N955   1.319   1_545  A
N333       Co342   2.079       .  S
C334        N338   1.348   1_655  A
C334       C1560   1.456       .  S
C334        C586   1.468       .  S
C335        C354   1.461       .  S
C335        H339   1.081       .  S
N336        C347   1.338       .  A
N336        N924   1.319   1_545  A
N336       Co346   2.083       .  S
C340        N356   1.348       .  A
C340       C1564   1.454       .  S
C340        C562   1.463       .  S
C341        C910   1.462       .  S
Co342      Cl353   2.454   1_455  S
N343       C1566   1.350       .  A
C344       N1527   1.346       .  A
C344        C571   1.467       .  S
N345        C930   1.349   1_545  A
Co346     Cl1565   2.447       .  S
C347        C925   1.462       .  S
C348       C1546   1.456       .  S
N349        N939   1.319       .  A
N350        C918   1.351       .  A
C352       C1552   1.454   1_455  S
Cl353      Co915   2.447   1_645  S
Cl353     Co2129   2.450   1_545  S
Cl353     Co1558   2.447       .  S
C354       N1555   1.350   1_455  A
C354        C598   1.479       .  S
C357        N375   1.351   1_655  A
C357       C1606   1.462       .  S
C357        C595   1.480       .  S
N358        N375   1.323       .  A
N358       N1592   1.318   1_455  A
N358       Co395   2.080       .  S
C359        N384   1.340       .  A
C359        C397   1.459       .  S
C359        H404   1.081       .  S
H360        C401   1.080       .  S
C361        N385   1.339       .  A
C361        C365   1.453   1_455  S
C361        H390   1.081       .  S
Co362       N380   2.082       .  S
Co362       N370   2.078       .  S
Co362       N402   2.081       .  S
Co362       N378   2.084       .  S
N363        C401   1.342       .  A
N363       Co364   2.089       .  S
Co364       N367   2.086       .  S
Co364       N384   2.083       .  S
Co364       N371   2.091       .  S
Co364      Cl406   2.447       .  S
C365       N1615   1.348       .  A
C365        C559   1.463       .  S
N366        N396   1.326       .  A
N366       Co399   2.085       .  S
N367       N1597   1.320       .  A
N367        N403   1.325       .  A
N368        N378   1.325       .  A
H369        C394   1.081       .  S
N370        N391   1.322       .  A
N371       N1601   1.321       .  A
N371        N376   1.325       .  A
C372        N376   1.349       .  A
C372       C1612   1.455       .  S
C372        C574   1.468       .  S
N373        C388   1.338       .  A
N373       Co395   2.082       .  S
C374        N402   1.341       .  A
C374        C377   1.456       .  S
C374        H408   1.082       .  S
C377       N1610   1.348       .  A
C377        C583   1.468       .  S
N379        C405   1.337       .  A
N379       Co395   2.080       .  S
N380        C394   1.340       .  A
N380       N1570   1.318       .  A
N381        N409   1.325       .  A
N381       Co399   2.084       .  S
H382        C405   1.080       .  S
H383        C400   1.081       .  S
N385       N1579   1.320   1_455  A
N385       Co399   2.077       .  S
N386        N398   1.324       .  A
N386       N1614   1.320   1_455  A
N386       Co395   2.083       .  S
C387        C401   1.467       .  S
C387        C475   1.486       .  S
C388        H392   1.082       .  S
N389        C400   1.340       .  A
N389       N1583   1.321   1_455  A
N389       Co399   2.081       .  S
C393        N409   1.351       .  A
C393        C487   1.481       .  S
C394       C1569   1.462       .  S
Co395     Cl1315   2.442   1_455  S
N396        C407   1.352       .  A
C397        C466   1.476       .  S
N398       C1589   1.348   1_455  A
Co399     Cl1618   2.457   1_455  S
C400       C1584   1.455   1_455  S
N402       N1598   1.320       .  A
N403       C1577   1.348       .  A
Cl406     Co1304   2.442   1_556  S
Cl406     Co1611   2.457       .  S
C407        C499   1.487       .  S
C410        C447   1.459       .  S
C410        C463   1.474       .  S
N411        N428   1.324       .  A
N411       Co448   2.079       .  S
C412        N437   1.345       .  A
C412        C450   1.470       .  S
C412        H457   1.081       .  S
H413        C454   1.081       .  S
C414        N438   1.340       .  A
C414        H443   1.080       .  S
Co415       N433   2.080       .  S
Co415       N423   2.088       .  S
Co415       N455   2.087       .  S
Co415       N431   2.073       .  S
Co415     Cl1065   2.449       .  S
N416        C454   1.339       .  A
N416       N1029   1.320   1_545  A
N416       Co417   2.088       .  S
Co417       N420   2.087       .  S
Co417       N437   2.095       .  S
Co417       N424   2.091       .  S
Co417      Cl459   2.456       .  S
C418        N456   1.352   1_554  A
C418        C478   1.484       .  S
N419       N1032   1.319   1_545  A
N419        N449   1.324       .  A
N419       Co452   2.084       .  S
N420        N456   1.324       .  A
N421       C1056   1.346       .  A
N421        N431   1.320       .  A
H422        C447   1.082       .  S
N423       N1022   1.320       .  A
N423        N444   1.326       .  A
N424        N429   1.327       .  A
C425        N429   1.355   1_554  A
C425        C502   1.488       .  S
N426        C441   1.340       .  A
N426       N1025   1.319       .  A
N426       Co448   2.083       .  S
C427        N455   1.343       .  A
C427        C430   1.466       .  S
C427        H461   1.081       .  S
C430        C490   1.482       .  S
N431       N1043   1.319       .  A
N432        C458   1.337       .  A
N432       N1040   1.317       .  A
N432       Co448   2.079       .  S
N433        C447   1.340       .  A
N434       N1038   1.317   1_545  A
N434        N462   1.326       .  A
N434       Co452   2.081       .  S
H435        C458   1.081       .  S
H436        C453   1.079       .  S
N437       N1037   1.319   1_545  A
N438       Co452   2.082       .  S
N439        N451   1.321       .  A
N439       Co448   2.075       .  S
C440        N444   1.352       .  A
C440       C1060   1.462       .  S
C440        C514   1.484       .  S
C441        C460   1.464       .  S
C441        H445   1.080       .  S
N442        C453   1.336       .  A
N442       Co452   2.080       .  S
C446        N462   1.352   1_565  A
C446       C1064   1.462       .  S
C446        C535   1.483       .  S
Co448      Cl762   2.445       .  S
N449       C1066   1.351   1_545  A
C450       N1027   1.346   1_545  A
C450        C523   1.488       .  S
C454       C1046   1.462       .  S
C458       C1052   1.462       .  S
Cl459     Co1021   2.449   1_545  S
Cl459      Co751   2.445   1_546  S
C460       N1055   1.351       .  A
C460        C550   1.483       .  S
C463        C464   1.400       .  A
C464        H473   1.083       .  S
C464        C465   1.396       .  A
C465        C466   1.412       .  A
C465        S469   1.798       .  S
C467        H474   1.084       .  S
C467        C468   1.400       .  A
C468        S470   1.803       .  S
S469        H472   1.407       .  S
S470        H471   1.407       .  S
C475        C480   1.415       .  A
C476        H485   1.083       .  S
C476        C477   1.397       .  A
C477        S481   1.800       .  S
C478        C479   1.405   1_554  A
C479        H486   1.084       .  S
C479        C480   1.401       .  A
C480        S482   1.800       .  S
S481        H484   1.407       .  S
S482        H483   1.406       .  S
C487        C488   1.406       .  A
C488        H497   1.084       .  S
C488        C489   1.402       .  A
C489        C490   1.414       .  A
C489        S493   1.802       .  S
C491        H498   1.082       .  S
C491        C492   1.398       .  A
C492        S494   1.808       .  S
S493        H496   1.407       .  S
S494        H495   1.407       .  S
C499        C504   1.414       .  A
C500        H509   1.080       .  S
C500        C501   1.400       .  A
C501        S505   1.808       .  S
C502        C503   1.406   1_554  A
C503        H510   1.083       .  S
C503        C504   1.403       .  A
C504        S506   1.799       .  S
S505        H508   1.407       .  S
S506        H507   1.407       .  S
C511        C512   1.406       .  A
C511       C1122   1.416       .  A
C512        H521   1.083       .  S
C512        C513   1.404       .  A
C513        C514   1.415       .  A
C513        S517   1.803       .  S
C514       C1121   1.403       .  A
C515        H522   1.083       .  S
C515       C1120   1.403       .  A
C515        C516   1.397       .  A
C516       C1117   1.416       .  A
C516        S518   1.802       .  S
S517        H520   1.407       .  S
S518        H519   1.407       .  S
C523        C524   1.405       .  A
C523       C1134   1.420   1_545  A
C524        H533   1.082       .  S
C524        C525   1.401       .  A
C525       C1132   1.414       .  A
C525        S529   1.799       .  S
C526       C1131   1.414       .  A
C526        C527   1.402       .  A
C527        H534   1.080       .  S
C527        C528   1.402       .  A
C528       C1129   1.420       .  A
C528        S530   1.811       .  S
S529        H532   1.407       .  S
S530        H531   1.407       .  S
C535       C1142   1.402       .  A
C535        C540   1.415   1_565  A
C536        H545   1.082       .  S
C536       C1141   1.402       .  A
C536        C537   1.395       .  A
C537       C1144   1.417       .  A
C537        S541   1.801       .  S
C538       C1143   1.417       .  A
C538        C539   1.407   1_565  A
C539        H546   1.084       .  S
C539        C540   1.403       .  A
C540        S542   1.803       .  S
S541        H544   1.407       .  S
S542        H543   1.407       .  S
C547       C1154   1.405   1_545  A
C547        C552   1.416       .  A
C548        H557   1.084       .  S
C548       C1153   1.405       .  A
C548        C549   1.398       .  A
C549        C550   1.414       .  A
C549        S553   1.801       .  S
C550       C1157   1.405       .  A
C551        H558   1.084       .  S
C551       C1156   1.405   1_545  A
C551        C552   1.401       .  A
C552        S554   1.801       .  S
S553        H556   1.407       .  S
S554        H555   1.407       .  S
C559        C560   1.400   1_655  A
C559       C1776   1.411       .  A
C560        H569   1.084       .  S
C560        C561   1.397       .  A
C561       C1774   1.410   1_455  A
C561        S565   1.805       .  S
C562       C1773   1.410       .  A
C562        C563   1.401       .  A
C563        H570   1.084       .  S
C563        C564   1.399       .  A
C564       C1771   1.411       .  A
C564        S566   1.804       .  S
S565        H568   1.405   1_455  S
S566        H567   1.405       .  S
C571        C572   1.401       .  A
C571       C1788   1.412       .  A
C572        H581   1.084       .  S
C572        C573   1.400       .  A
C573        C574   1.411       .  A
C573        S577   1.802       .  S
C574       C1787   1.401       .  A
C575        H582   1.084       .  S
C575       C1786   1.401   1_455  A
C575        C576   1.399   1_455  A
C576       C1783   1.412       .  A
C576        S578   1.805   1_655  S
S577        H580   1.405       .  S
S578        H579   1.405   1_455  S
C583        C584   1.402       .  A
C583       C1800   1.412       .  A
C584        H593   1.084       .  S
C584        C585   1.400       .  A
C585       C1798   1.411       .  A
C585        S589   1.804       .  S
C586       C1797   1.411       .  A
C586        C587   1.401   1_655  A
C587        H594   1.084       .  S
C587        C588   1.398       .  A
C588       C1795   1.412   1_455  A
C588        S590   1.804       .  S
S589        H592   1.407       .  S
S590       H1803   1.407   1_455  S
H591       S1802   1.407       .  S
C595        C596   1.404   1_655  A
C595       C1812   1.415       .  A
C596        H605   1.083       .  S
C596        C597   1.398       .  A
C597        C598   1.414       .  A
C597        S601   1.802       .  S
C598       C1811   1.403   1_455  A
C599        H606   1.083       .  S
C599       C1810   1.403       .  A
C599        C600   1.400       .  A
C600       C1807   1.415       .  A
C600        S602   1.803       .  S
S601        H604   1.407       .  S
S602        H603   1.407       .  S
C607        N625   1.354       .  A
C607        C841   1.486       .  S
N608        N625   1.326       .  A
N608       Co645   2.087       .  S
C609        N634   1.342       .  A
C609        C647   1.458       .  S
C609        H654   1.081       .  S
H610        C651   1.081       .  S
C611        N635   1.342       .  A
C611        C615   1.467       .  S
C611        H640   1.080       .  S
Co612       N630   2.077       .  S
Co612       N620   2.081       .  S
Co612       N652   2.090       .  S
Co612       N628   2.077       .  S
N613        C651   1.340       .  A
N613       N1832   1.320       .  A
N613       Co614   2.083       .  S
Co614       N617   2.083       .  S
Co614       N634   2.089       .  S
Co614       N621   2.088       .  S
Co614     Cl1262   2.450   1_565  S
C615        C850   1.486       .  S
N616       N1835   1.320       .  A
N616        N646   1.324       .  A
N616       Co649   2.086       .  S
N617        N653   1.323       .  A
N618       C1859   1.346   1_455  A
N618        N628   1.323       .  A
H619        C644   1.079       .  S
N620       N1825   1.320   1_455  A
N620        N641   1.325       .  A
N621        N626   1.326       .  A
C622        N626   1.353   1_545  A
C622        C814   1.485       .  S
N623        C638   1.339       .  A
N623       N1828   1.320   1_455  A
N623       Co645   2.079       .  S
C624        N652   1.341       .  A
C624        C627   1.466       .  S
C624        H658   1.081       .  S
C627        C829   1.485   1_565  S
N628       N1846   1.321   1_455  A
N629        C655   1.339       .  A
N629       N1843   1.320   1_455  A
N629       Co645   2.080       .  S
N630        C644   1.336       .  A
N631       N1841   1.320       .  A
N631        N659   1.324       .  A
N631       Co649   2.081       .  S
H632        C655   1.081       .  S
H633        C650   1.080       .  S
N634       N1840   1.321       .  A
N635       Co649   2.086       .  S
N636        N648   1.324       .  A
N636       Co645   2.079       .  S
C637        N641   1.348   1_655  A
C637       C1863   1.456       .  S
C637        C889   1.468       .  S
C638        C657   1.461       .  S
C638        H642   1.081       .  S
N639        C650   1.338       .  A
N639       Co649   2.083       .  S
C643        N659   1.348       .  A
C643       C1867   1.454       .  S
C643        C865   1.463       .  S
Co645      Cl656   2.454   1_455  S
N646       C1869   1.350       .  A
C647       N1830   1.346       .  A
C647        C874   1.467       .  S
Co649     Cl1868   2.447       .  S
C651       C1849   1.456       .  S
C655       C1855   1.454   1_455  S
Cl656     Co1220   2.450       .  S
Cl656     Co1861   2.447       .  S
C657       N1858   1.350   1_455  A
C657        C901   1.479       .  S
C660        N678   1.351   1_655  A
C660       C1909   1.462       .  S
C660        C898   1.480       .  S
N661        N678   1.323       .  A
N661       N1895   1.318   1_455  A
N661       Co698   2.080       .  S
C662        N687   1.340       .  A
C662        C700   1.459       .  S
C662        H707   1.081       .  S
H663        C704   1.080       .  S
C664        N688   1.339       .  A
C664        C668   1.453   1_455  S
C664        H693   1.081       .  S
Co665       N683   2.082       .  S
Co665       N673   2.078       .  S
Co665       N705   2.081       .  S
Co665       N681   2.084       .  S
Co665     Cl1012   2.451   1_554  S
N666        C704   1.342       .  A
N666        N976   1.318       .  A
N666       Co667   2.089       .  S
Co667       N670   2.086       .  S
Co667       N687   2.083       .  S
Co667       N674   2.091       .  S
Co667      Cl709   2.447       .  S
C668       N1918   1.348       .  A
C668        C862   1.463       .  S
N669        N979   1.318       .  A
N669        N699   1.326       .  A
N669       Co702   2.085       .  S
N670       N1900   1.320       .  A
N670        N706   1.325       .  A
N671       C1003   1.350   1_554  A
N671        N681   1.325       .  A
H672        C697   1.081       .  S
N673        N969   1.318   1_554  A
N673        N694   1.322       .  A
N674       N1904   1.321       .  A
N674        N679   1.325       .  A
C675        N679   1.349       .  A
C675       C1915   1.455       .  S
C675        C877   1.468       .  S
N676        C691   1.338       .  A
N676        N972   1.318   1_554  A
N676       Co698   2.082       .  S
C677        N705   1.341       .  A
C677        C680   1.456       .  S
C677        H711   1.082       .  S
C680       N1913   1.348       .  A
C680        C886   1.468       .  S
N681        N990   1.320   1_554  A
N682        C708   1.337       .  A
N682        N987   1.319   1_554  A
N682       Co698   2.080       .  S
N683        C697   1.340       .  A
N683       N1873   1.318       .  A
N684        N985   1.319       .  A
N684        N712   1.325       .  A
N684       Co702   2.084       .  S
H685        C708   1.080       .  S
H686        C703   1.081       .  S
N687        N984   1.320       .  A
N688       N1882   1.320   1_455  A
N688       Co702   2.077       .  S
N689        N701   1.324       .  A
N689       N1917   1.320   1_455  A
N689       Co698   2.083       .  S
C690        N997   1.350       .  A
C690        C704   1.467       .  S
C690        C778   1.486       .  S
C691       C1013   1.463   1_554  S
C691        H695   1.082       .  S
N692        C703   1.340       .  A
N692       N1886   1.321   1_455  A
N692       Co702   2.081       .  S
N694        C993   1.350   1_554  A
C696        N712   1.351       .  A
C696       C1011   1.462       .  S
C696        C790   1.481       .  S
C697       C1872   1.462       .  S
Co698     Cl2224   2.442   1_454  S
N699        C710   1.352       .  A
C700        N974   1.350       .  A
C700        C769   1.476       .  S
N701       C1892   1.348   1_455  A
Co702     Cl1921   2.457   1_455  S
C703       C1887   1.455   1_455  S
N705       N1901   1.320       .  A
N706       C1880   1.348       .  A
C708        C999   1.462   1_554  S
Cl709      Co968   2.451       .  S
Cl709     Co2213   2.442       .  S
Cl709     Co1914   2.457       .  S
C710        C994   1.463       .  S
C710        C802   1.487       .  S
C713       N1034   1.348       .  A
C713        C750   1.459       .  S
C713        C766   1.474       .  S
N714        N731   1.324       .  A
N714       N1039   1.319   1_554  A
N714       Co751   2.079       .  S
C715        N740   1.345       .  A
C715        C753   1.470       .  S
C715        H760   1.081       .  S
H716        C757   1.081       .  S
C717        N741   1.340       .  A
C717       C1024   1.463       .  S
C717        H746   1.080       .  S
Co718       N736   2.080       .  S
Co718       N726   2.088       .  S
Co718       N758   2.087       .  S
Co718       N734   2.073       .  S
N719        C757   1.339       .  A
N719       Co720   2.088       .  S
Co720       N723   2.087       .  S
Co720       N740   2.095       .  S
Co720       N727   2.091       .  S
Co720      Cl762   2.456       .  S
C721        N759   1.352       .  A
C721       C1020   1.463       .  S
C721        C781   1.484       .  S
N722        N752   1.324       .  A
N722       Co755   2.084       .  S
N723       N1044   1.319       .  A
N723        N759   1.324       .  A
N724        N734   1.320       .  A
H725        C750   1.082       .  S
N726        N747   1.326       .  A
N727       N1048   1.319       .  A
N727        N732   1.327       .  A
C728        N732   1.355       .  A
C728       C1059   1.462       .  S
C728        C805   1.488       .  S
N729        C744   1.340       .  A
N729       Co751   2.083       .  S
C730        N758   1.343       .  A
C730        C733   1.466       .  S
C730        H764   1.081       .  S
N731       C1016   1.348   1_554  A
C733       N1057   1.349       .  A
C733        C793   1.482       .  S
N735        C761   1.337       .  A
N735       Co751   2.079       .  S
N736        C750   1.340       .  A
N736       N1017   1.319       .  A
N737        N765   1.326       .  A
N737       Co755   2.081       .  S
H738        C761   1.081       .  S
H739        C756   1.079       .  S
N741       N1026   1.319   1_554  A
N741       Co755   2.082       .  S
N742        N754   1.321       .  A
N742       N1061   1.318   1_554  A
N742       Co751   2.075       .  S
C743        N747   1.352   1_545  A
C743        C817   1.484       .  S
C744        C763   1.464       .  S
C744        H748   1.080       .  S
N745        C756   1.336       .  A
N745       N1030   1.319   1_554  A
N745       Co755   2.080       .  S
C749        N765   1.352       .  A
C749        C838   1.483       .  S
C753        C826   1.488       .  S
N754       C1036   1.349   1_554  A
Co755     Cl1065   2.446   1_554  S
C756       C1031   1.462       .  S
N758       N1045   1.318       .  A
Cl762     Co1058   2.446       .  S
C763        C853   1.483       .  S
C766        C767   1.400       .  A
C766       C1074   1.414       .  A
C767        H776   1.083       .  S
C767        C768   1.396       .  A
C768        C769   1.412       .  A
C768        S772   1.798       .  S
C769       C1073   1.403       .  A
C770        H777   1.084       .  S
C770       C1072   1.403   1_554  A
C770        C771   1.400       .  A
C771       C1069   1.414   1_554  A
C771        S773   1.803       .  S
S772        H775   1.407       .  S
S773        H774   1.407       .  S
C778       C1082   1.405       .  A
C778        C783   1.415       .  A
C779        H788   1.083       .  S
C779       C1081   1.405   1_554  A
C779        C780   1.397       .  A
C780       C1084   1.416       .  A
C780        S784   1.800       .  S
C781       C1083   1.416       .  A
C781        C782   1.405       .  A
C782        H789   1.084       .  S
C782        C783   1.401       .  A
C783        S785   1.800       .  S
S784        H787   1.407       .  S
S785        H786   1.406       .  S
C790        C791   1.406       .  A
C790       C1098   1.415       .  A
C791        H800   1.084       .  S
C791        C792   1.402       .  A
C792        C793   1.414       .  A
C792        S796   1.802       .  S
C793       C1097   1.403       .  A
C794        H801   1.082       .  S
C794       C1096   1.403   1_554  A
C794        C795   1.398       .  A
C795       C1093   1.415   1_554  A
C795        S797   1.808       .  S
S796        H799   1.407       .  S
S797        H798   1.407       .  S
C802       C1106   1.403       .  A
C802        C807   1.414       .  A
C803        H812   1.080       .  S
C803       C1105   1.403   1_554  A
C803        C804   1.400       .  A
C804       C1108   1.418       .  A
C804        S808   1.808       .  S
C805       C1107   1.418       .  A
C805        C806   1.406       .  A
C806        H813   1.083       .  S
C806        C807   1.403       .  A
C807        S809   1.799       .  S
S808        H811   1.407       .  S
S809        H810   1.407       .  S
C814        C815   1.406   1_545  A
C815        H824   1.083       .  S
C815        C816   1.404       .  A
C816        C817   1.415   1_565  A
C816        S820   1.803       .  S
C818        H825   1.083       .  S
C818        C819   1.397       .  A
C819        S821   1.802       .  S
S820        H823   1.407       .  S
S821        H822   1.407       .  S
C826        C827   1.405       .  A
C827        H836   1.082       .  S
C827        C828   1.401       .  A
C828        S832   1.799       .  S
C829        C830   1.402   1_545  A
C830        H837   1.080       .  S
C830        C831   1.402       .  A
C831        S833   1.811       .  S
S832        H835   1.407       .  S
S833        H834   1.407       .  S
C838        C843   1.415       .  A
C839        H848   1.082       .  S
C839        C840   1.395       .  A
C840        S844   1.801       .  S
C841        C842   1.407       .  A
C842        H849   1.084       .  S
C842        C843   1.403       .  A
C843        S845   1.803       .  S
S844        H847   1.407       .  S
S845        H846   1.407       .  S
C850        C855   1.416       .  A
C851        H860   1.084       .  S
C851        C852   1.398       .  A
C852        C853   1.414       .  A
C852        S856   1.801       .  S
C854        H861   1.084       .  S
C854        C855   1.401       .  A
C855        S857   1.801       .  S
S856        H859   1.407       .  S
S857        H858   1.407       .  S
C862        C863   1.400   1_655  A
C862       C2079   1.411       .  A
C863        H872   1.084       .  S
C863        C864   1.397       .  A
C864       C2077   1.410   1_455  A
C864        S868   1.805       .  S
C865       C2076   1.410       .  A
C865        C866   1.401       .  A
C866        H873   1.084       .  S
C866        C867   1.399       .  A
C867       C2074   1.411       .  A
C867        S869   1.804       .  S
S868        H871   1.405   1_455  S
S869        H870   1.405       .  S
C874        C875   1.401       .  A
C874       C2091   1.412       .  A
C875        H884   1.084       .  S
C875        C876   1.400       .  A
C876        C877   1.411       .  A
C876        S880   1.802       .  S
C877       C2090   1.401       .  A
C878        H885   1.084       .  S
C878       C2089   1.401   1_455  A
C878        C879   1.399   1_455  A
C879       C2086   1.412       .  A
C879        S881   1.805   1_655  S
S880        H883   1.405       .  S
S881        H882   1.405   1_455  S
C886        C887   1.402       .  A
C886       C2103   1.412       .  A
C887        H896   1.084       .  S
C887        C888   1.400       .  A
C888       C2101   1.411       .  A
C888        S892   1.804       .  S
C889       C2100   1.411       .  A
C889        C890   1.401   1_655  A
C890        H897   1.084       .  S
C890        C891   1.398       .  A
C891       C2098   1.412   1_455  A
C891        S893   1.804       .  S
S892        H895   1.407       .  S
S893       H2106   1.407   1_455  S
H894       S2105   1.407       .  S
C898        C899   1.404   1_655  A
C898       C2115   1.415       .  A
C899        H908   1.083       .  S
C899        C900   1.398       .  A
C900        C901   1.414       .  A
C900        S904   1.802       .  S
C901       C2114   1.403   1_455  A
C902        H909   1.083       .  S
C902       C2113   1.403       .  A
C902        C903   1.400       .  A
C903       C2110   1.415       .  A
C903        S905   1.803       .  S
S904        H907   1.407       .  S
S905        H906   1.407       .  S
C910        N928   1.354       .  A
C910       C1144   1.486       .  S
N911        N928   1.326       .  A
N911       Co948   2.087       .  S
C912        N937   1.342       .  A
C912        C950   1.458       .  S
C912        H957   1.081       .  S
H913        C954   1.081       .  S
C914        N938   1.342       .  A
C914        C918   1.467       .  S
C914        H943   1.080       .  S
Co915       N933   2.077       .  S
Co915       N923   2.081       .  S
Co915       N955   2.090       .  S
Co915       N931   2.077       .  S
N916        C954   1.340       .  A
N916       N2135   1.320       .  A
N916       Co917   2.083       .  S
Co917       N920   2.083       .  S
Co917       N937   2.089       .  S
Co917       N924   2.088       .  S
Co917     Cl1565   2.450   1_565  S
C918       C1153   1.486       .  S
N919       N2138   1.320       .  A
N919        N949   1.324       .  A
N919       Co952   2.086       .  S
N920        N956   1.323       .  A
N921       C2162   1.346   1_455  A
N921        N931   1.323       .  A
H922        C947   1.079       .  S
N923       N2128   1.320   1_455  A
N923        N944   1.325       .  A
N924        N929   1.326       .  A
C925        N929   1.353   1_545  A
C925       C1117   1.485       .  S
N926        C941   1.339       .  A
N926       N2131   1.320   1_455  A
N926       Co948   2.079       .  S
C927        N955   1.341       .  A
C927        C930   1.466       .  S
C927        H961   1.081       .  S
C930       C1132   1.485   1_565  S
N931       N2149   1.321   1_455  A
N932        C958   1.339       .  A
N932       N2146   1.320   1_455  A
N932       Co948   2.080       .  S
N933        C947   1.336       .  A
N934       N2144   1.320       .  A
N934        N962   1.324       .  A
N934       Co952   2.081       .  S
H935        C958   1.081       .  S
H936        C953   1.080       .  S
N937       N2143   1.321       .  A
N938       Co952   2.086       .  S
N939        N951   1.324       .  A
N939       Co948   2.079       .  S
C940        N944   1.348   1_655  A
C940       C2166   1.456       .  S
C940       C1192   1.468       .  S
C941        C960   1.461       .  S
C941        H945   1.081       .  S
N942        C953   1.338       .  A
N942       Co952   2.083       .  S
C946        N962   1.348       .  A
C946       C2170   1.454       .  S
C946       C1168   1.463       .  S
Co948      Cl959   2.454   1_455  S
N949       C2172   1.350       .  A
C950       N2133   1.346       .  A
C950       C1177   1.467       .  S
Co952     Cl2171   2.447       .  S
C954       C2152   1.456       .  S
C958       C2158   1.454   1_455  S
Cl959     Co1523   2.450       .  S
Cl959     Co2164   2.447       .  S
C960       N2161   1.350   1_455  A
C960       C1204   1.479       .  S
C963        N981   1.351   1_655  A
C963       C2212   1.462       .  S
C963       C1201   1.480       .  S
N964        N981   1.323       .  A
N964       N2198   1.318   1_455  A
N964      Co1001   2.080       .  S
C965        N990   1.340       .  A
C965       C1003   1.459       .  S
C965       H1010   1.081       .  S
H966       C1007   1.080       .  S
C967        N991   1.339       .  A
C967        C971   1.453   1_455  S
C967        H996   1.081       .  S
Co968       N986   2.082       .  S
Co968       N976   2.078       .  S
Co968      N1008   2.081       .  S
Co968       N984   2.084       .  S
N969       C1007   1.342       .  A
N969       Co970   2.089       .  S
Co970       N973   2.086       .  S
Co970       N990   2.083       .  S
Co970       N977   2.091       .  S
Co970     Cl1012   2.447       .  S
C971       N2221   1.348       .  A
C971       C1165   1.463       .  S
N972       N1002   1.326       .  A
N972      Co1005   2.085       .  S
N973       N2203   1.320       .  A
N973       N1009   1.325       .  A
N974        N984   1.325       .  A
H975       C1000   1.081       .  S
N976        N997   1.322       .  A
N977       N2207   1.321       .  A
N977        N982   1.325       .  A
C978        N982   1.349       .  A
C978       C2218   1.455       .  S
C978       C1180   1.468       .  S
N979        C994   1.338       .  A
N979      Co1001   2.082       .  S
C980       N1008   1.341       .  A
C980        C983   1.456       .  S
C980       H1014   1.082       .  S
C983       N2216   1.348       .  A
C983       C1189   1.468       .  S
N985       C1011   1.337       .  A
N985      Co1001   2.080       .  S
N986       C1000   1.340       .  A
N986       N2176   1.318       .  A
N987       N1015   1.325       .  A
N987      Co1005   2.084       .  S
H988       C1011   1.080       .  S
H989       C1006   1.081       .  S
N991       N2185   1.320   1_455  A
N991      Co1005   2.077       .  S
N992       N1004   1.324       .  A
N992       N2220   1.320   1_455  A
N992      Co1001   2.083       .  S
C993       C1007   1.467       .  S
C993       C1081   1.486       .  S
C994        H998   1.082       .  S
N995       C1006   1.340       .  A
N995       N2189   1.321   1_455  A
N995      Co1005   2.081       .  S
C999       N1015   1.351       .  A
C999       C1093   1.481       .  S
C1000      C2175   1.462       .  S
Co1001    Cl1921   2.442   1_455  S
N1002      C1013   1.352       .  A
C1003      C1072   1.476       .  S
N1004      C2195   1.348   1_455  A
Co1005    Cl2224   2.457   1_455  S
C1006      C2190   1.455   1_455  S
N1008      N2204   1.320       .  A
N1009      C2183   1.348       .  A
Cl1012    Co1910   2.442   1_556  S
Cl1012    Co2217   2.457       .  S
C1013      C1105   1.487       .  S
C1016      C1053   1.459       .  S
C1016      C1069   1.474       .  S
N1017      N1034   1.324       .  A
N1017     Co1054   2.079       .  S
C1018      N1043   1.345       .  A
C1018      C1056   1.470       .  S
C1018      H1063   1.081       .  S
H1019      C1060   1.081       .  S
C1020      N1044   1.340       .  A
C1020      H1049   1.080       .  S
Co1021     N1039   2.080       .  S
Co1021     N1029   2.088       .  S
Co1021     N1061   2.087       .  S
Co1021     N1037   2.073       .  S
N1022      C1060   1.339       .  A
N1022     Co1023   2.088       .  S
Co1023     N1026   2.087       .  S
Co1023     N1043   2.095       .  S
Co1023     N1030   2.091       .  S
Co1023    Cl1065   2.456       .  S
C1024      N1062   1.352   1_554  A
C1024      C1084   1.484       .  S
N1025      N1055   1.324       .  A
N1025     Co1058   2.084       .  S
N1026      N1062   1.324       .  A
N1027      N1037   1.320       .  A
H1028      C1053   1.082       .  S
N1029      N1050   1.326       .  A
N1030      N1035   1.327       .  A
C1031      N1035   1.355   1_554  A
C1031      C1108   1.488       .  S
N1032      C1047   1.340       .  A
N1032     Co1054   2.083       .  S
C1033      N1061   1.343       .  A
C1033      C1036   1.466       .  S
C1033      H1067   1.081       .  S
C1036      C1096   1.482       .  S
N1038      C1064   1.337       .  A
N1038     Co1054   2.079       .  S
N1039      C1053   1.340       .  A
N1040      N1068   1.326       .  A
N1040     Co1058   2.081       .  S
H1041      C1064   1.081       .  S
H1042      C1059   1.079       .  S
N1044     Co1058   2.082       .  S
N1045      N1057   1.321       .  A
N1045     Co1054   2.075       .  S
C1046      N1050   1.352   1_545  A
C1046      C1120   1.484       .  S
C1047      C1066   1.464       .  S
C1047      H1051   1.080       .  S
N1048      C1059   1.336       .  A
N1048     Co1058   2.080       .  S
C1052      N1068   1.352       .  A
C1052      C1141   1.483       .  S
C1056      C1129   1.488       .  S
C1066      C1156   1.483       .  S
C1069      C1070   1.400       .  A
C1070      H1079   1.083       .  S
C1070      C1071   1.396       .  A
C1071      C1072   1.412       .  A
C1071      S1075   1.798       .  S
C1073      H1080   1.084       .  S
C1073      C1074   1.400       .  A
C1074      S1076   1.803       .  S
S1075      H1078   1.407       .  S
S1076      H1077   1.407       .  S
C1081      C1086   1.415       .  A
C1082      H1091   1.083       .  S
C1082      C1083   1.397       .  A
C1083      S1087   1.800       .  S
C1084      C1085   1.405   1_554  A
C1085      H1092   1.084       .  S
C1085      C1086   1.401       .  A
C1086      S1088   1.800       .  S
S1087      H1090   1.407       .  S
S1088      H1089   1.406       .  S
C1093      C1094   1.406       .  A
C1094      H1103   1.084       .  S
C1094      C1095   1.402       .  A
C1095      C1096   1.414       .  A
C1095      S1099   1.802       .  S
C1097      H1104   1.082       .  S
C1097      C1098   1.398       .  A
C1098      S1100   1.808       .  S
S1099      H1102   1.407       .  S
S1100      H1101   1.407       .  S
C1105      C1110   1.414       .  A
C1106      H1115   1.080       .  S
C1106      C1107   1.400       .  A
C1107      S1111   1.808       .  S
C1108      C1109   1.406   1_554  A
C1109      H1116   1.083       .  S
C1109      C1110   1.403       .  A
C1110      S1112   1.799       .  S
S1111      H1114   1.407       .  S
S1112      H1113   1.407       .  S
C1117      C1118   1.406   1_545  A
C1118      H1127   1.083       .  S
C1118      C1119   1.404       .  A
C1119      C1120   1.415   1_565  A
C1119      S1123   1.803       .  S
C1121      H1128   1.083       .  S
C1121      C1122   1.397       .  A
C1122      S1124   1.802       .  S
S1123      H1126   1.407       .  S
S1124      H1125   1.407       .  S
C1129      C1130   1.405       .  A
C1130      H1139   1.082       .  S
C1130      C1131   1.401       .  A
C1131      S1135   1.799       .  S
C1132      C1133   1.402   1_545  A
C1133      H1140   1.080       .  S
C1133      C1134   1.402       .  A
C1134      S1136   1.811       .  S
S1135      H1138   1.407       .  S
S1136      H1137   1.407       .  S
C1141      C1146   1.415       .  A
C1142      H1151   1.082       .  S
C1142      C1143   1.395       .  A
C1143      S1147   1.801       .  S
C1144      C1145   1.407       .  A
C1145      H1152   1.084       .  S
C1145      C1146   1.403       .  A
C1146      S1148   1.803       .  S
S1147      H1150   1.407       .  S
S1148      H1149   1.407       .  S
C1153      C1158   1.416       .  A
C1154      H1163   1.084       .  S
C1154      C1155   1.398       .  A
C1155      C1156   1.414       .  A
C1155      S1159   1.801       .  S
C1157      H1164   1.084       .  S
C1157      C1158   1.401       .  A
C1158      S1160   1.801       .  S
S1159      H1162   1.407       .  S
S1160      H1161   1.407       .  S
C1165      C1166   1.400   1_655  A
C1165      C2382   1.411       .  A
C1166      H1175   1.084       .  S
C1166      C1167   1.397       .  A
C1167      C2380   1.410   1_455  A
C1167      S1171   1.805       .  S
C1168      C2379   1.410       .  A
C1168      C1169   1.401       .  A
C1169      H1176   1.084       .  S
C1169      C1170   1.399       .  A
C1170      C2377   1.411       .  A
C1170      S1172   1.804       .  S
S1171      H1174   1.405   1_455  S
S1172      H1173   1.405       .  S
C1177      C1178   1.401       .  A
C1177      C2394   1.412       .  A
C1178      H1187   1.084       .  S
C1178      C1179   1.400       .  A
C1179      C1180   1.411       .  A
C1179      S1183   1.802       .  S
C1180      C2393   1.401       .  A
C1181      H1188   1.084       .  S
C1181      C2392   1.401   1_455  A
C1181      C1182   1.399   1_455  A
C1182      C2389   1.412       .  A
C1182      S1184   1.805   1_655  S
S1183      H1186   1.405       .  S
S1184      H1185   1.405   1_455  S
C1189      C1190   1.402       .  A
C1189      C2406   1.412       .  A
C1190      H1199   1.084       .  S
C1190      C1191   1.400       .  A
C1191      C2404   1.411       .  A
C1191      S1195   1.804       .  S
C1192      C2403   1.411       .  A
C1192      C1193   1.401   1_655  A
C1193      H1200   1.084       .  S
C1193      C1194   1.398       .  A
C1194      C2401   1.412   1_455  A
C1194      S1196   1.804       .  S
S1195      H1198   1.407       .  S
S1196      H2409   1.407   1_455  S
H1197      S2408   1.407       .  S
C1201      C1202   1.404   1_655  A
C1201      C2418   1.415       .  A
C1202      H1211   1.083       .  S
C1202      C1203   1.398       .  A
C1203      C1204   1.414       .  A
C1203      S1207   1.802       .  S
C1204      C2417   1.403   1_455  A
C1205      H1212   1.083       .  S
C1205      C2416   1.403       .  A
C1205      C1206   1.400       .  A
C1206      C2413   1.415       .  A
C1206      S1208   1.803       .  S
S1207      H1210   1.407       .  S
S1208      H1209   1.407       .  S
C1213      N1231   1.354   1_565  A
C1213      C1856   1.462       .  S
C1213      C1447   1.486       .  S
N1214      N1231   1.326       .  A
N1214      N1842   1.318   1_545  A
N1214     Co1251   2.087       .  S
C1215      N1240   1.342       .  A
C1215      C1253   1.458       .  S
C1215      H1260   1.081       .  S
H1216      C1257   1.081       .  S
C1217      N1241   1.342       .  A
C1217      C1221   1.467       .  S
C1217      H1246   1.080       .  S
Co1218     N1236   2.077       .  S
Co1218     N1226   2.081       .  S
Co1218     N1258   2.090       .  S
Co1218     N1234   2.077       .  S
Co1218    Cl1868   2.447       .  S
N1219      C1257   1.340       .  A
N1219     Co1220   2.083       .  S
Co1220     N1223   2.083       .  S
Co1220     N1240   2.089       .  S
Co1220     N1227   2.088       .  S
C1221      N1865   1.351   1_545  A
C1221      C1456   1.486       .  S
N1222      N1252   1.324       .  A
N1222     Co1255   2.086       .  S
N1223      N1847   1.318       .  A
N1223      N1259   1.323       .  A
N1224      N1234   1.323       .  A
H1225      C1250   1.079       .  S
N1226      N1247   1.325       .  A
N1227      N1851   1.319       .  A
N1227      N1232   1.326       .  A
C1228      N1232   1.353       .  A
C1228      C1862   1.462       .  S
C1228      C1420   1.485       .  S
N1229      C1244   1.339       .  A
N1229     Co1251   2.079       .  S
C1230      N1258   1.341       .  A
C1230      C1233   1.466       .  S
C1230      H1264   1.081       .  S
C1233      N1860   1.349       .  A
C1233      C1435   1.485       .  S
N1235      C1261   1.339       .  A
N1235     Co1251   2.080       .  S
N1236      C1250   1.336       .  A
N1236      N1820   1.318       .  A
N1237      N1265   1.324       .  A
N1237     Co1255   2.081       .  S
H1238      C1261   1.081       .  S
H1239      C1256   1.080       .  S
N1241      N1829   1.318   1_545  A
N1241     Co1255   2.086       .  S
N1242      N1254   1.324       .  A
N1242      N1864   1.319   1_545  A
N1242     Co1251   2.079       .  S
C1243      N1247   1.348       .  A
C1243      C1495   1.468       .  S
C1244      C1263   1.461       .  S
C1244      H1248   1.081       .  S
N1245      C1256   1.338       .  A
N1245      N1833   1.319   1_545  A
N1245     Co1255   2.083       .  S
C1249      N1265   1.348       .  A
C1249      C1471   1.463       .  S
C1250      C1819   1.462       .  S
Co1251    Cl1262   2.454       .  S
C1253      C1480   1.467       .  S
N1254      C1839   1.349   1_545  A
C1256      C1834   1.462       .  S
N1258      N1848   1.319       .  A
N1259      C1827   1.351       .  A
Cl1262    Co1824   2.447   1_545  S
C1263      C1507   1.479       .  S
C1266      N1284   1.351       .  A
C1266      C1504   1.480       .  S
N1267      N1284   1.323       .  A
N1267     Co1304   2.080       .  S
C1268      N1293   1.340       .  A
C1268      C1306   1.459       .  S
C1268      H1313   1.081       .  S
H1269      C1310   1.080       .  S
C1270      N1294   1.339       .  A
C1270      C1274   1.453       .  S
C1270      H1299   1.081       .  S
Co1271     N1289   2.082       .  S
Co1271     N1279   2.078       .  S
Co1271     N1311   2.081       .  S
Co1271     N1287   2.084       .  S
Co1271    Cl1618   2.451   1_554  S
N1272      C1310   1.342       .  A
N1272      N1582   1.318       .  A
N1272     Co1273   2.089       .  S
Co1273     N1276   2.086       .  S
Co1273     N1293   2.083       .  S
Co1273     N1280   2.091       .  S
Co1273    Cl1315   2.447       .  S
C1274      C1468   1.463       .  S
N1275      N1585   1.318       .  A
N1275      N1305   1.326       .  A
N1275     Co1308   2.085       .  S
N1276      N1312   1.325       .  A
N1277      C1609   1.350   1_554  A
N1277      N1287   1.325       .  A
H1278      C1303   1.081       .  S
N1279      N1575   1.318   1_554  A
N1279      N1300   1.322       .  A
N1280      N1285   1.325       .  A
C1281      N1285   1.349       .  A
C1281      C1483   1.468       .  S
N1282      C1297   1.338       .  A
N1282      N1578   1.318   1_554  A
N1282     Co1304   2.082       .  S
C1283      N1311   1.341       .  A
C1283      C1286   1.456       .  S
C1283      H1317   1.082       .  S
C1286      C1492   1.468       .  S
N1287      N1596   1.320   1_554  A
N1288      C1314   1.337       .  A
N1288      N1593   1.319   1_554  A
N1288     Co1304   2.080       .  S
N1289      C1303   1.340       .  A
N1290      N1591   1.319       .  A
N1290      N1318   1.325       .  A
N1290     Co1308   2.084       .  S
H1291      C1314   1.080       .  S
H1292      C1309   1.081       .  S
N1293      N1590   1.320       .  A
N1294     Co1308   2.077       .  S
N1295      N1307   1.324       .  A
N1295     Co1304   2.083       .  S
C1296      N1603   1.350       .  A
C1296      C1310   1.467       .  S
C1296      C1384   1.486       .  S
C1297      C1619   1.463   1_554  S
C1297      H1301   1.082       .  S
N1298      C1309   1.340       .  A
N1298     Co1308   2.081       .  S
N1300      C1599   1.350   1_554  A
C1302      N1318   1.351       .  A
C1302      C1617   1.462       .  S
C1302      C1396   1.481       .  S
N1305      C1316   1.352       .  A
C1306      N1580   1.350       .  A
C1306      C1375   1.476       .  S
C1314      C1605   1.462   1_554  S
Cl1315    Co1574   2.451       .  S
C1316      C1600   1.463       .  S
C1316      C1408   1.487       .  S
C1319      N1640   1.348       .  A
C1319      C1356   1.459       .  S
C1319      C1372   1.474       .  S
N1320      N1337   1.324       .  A
N1320      N1645   1.319   1_554  A
N1320     Co1357   2.079       .  S
C1321      N1346   1.345       .  A
C1321      C1359   1.470       .  S
C1321      H1366   1.081       .  S
H1322      C1363   1.081       .  S
C1323      N1347   1.340       .  A
C1323      C1630   1.463       .  S
C1323      H1352   1.080       .  S
Co1324     N1342   2.080       .  S
Co1324     N1332   2.088       .  S
Co1324     N1364   2.087       .  S
Co1324     N1340   2.073       .  S
Co1324    Cl1974   2.449       .  S
N1325      C1363   1.339       .  A
N1325      N1938   1.320   1_545  A
N1325     Co1326   2.088       .  S
Co1326     N1329   2.087       .  S
Co1326     N1346   2.095       .  S
Co1326     N1333   2.091       .  S
Co1326    Cl1368   2.456       .  S
C1327      N1365   1.352       .  A
C1327      C1626   1.463       .  S
C1327      C1387   1.484       .  S
N1328      N1941   1.319   1_545  A
N1328      N1358   1.324       .  A
N1328     Co1361   2.084       .  S
N1329      N1650   1.319       .  A
N1329      N1365   1.324       .  A
N1330      C1965   1.346       .  A
N1330      N1340   1.320       .  A
H1331      C1356   1.082       .  S
N1332      N1931   1.320       .  A
N1332      N1353   1.326       .  A
N1333      N1654   1.319       .  A
N1333      N1338   1.327       .  A
C1334      N1338   1.355       .  A
C1334      C1665   1.462       .  S
C1334      C1411   1.488       .  S
N1335      C1350   1.340       .  A
N1335      N1934   1.319       .  A
N1335     Co1357   2.083       .  S
C1336      N1364   1.343       .  A
C1336      C1339   1.466       .  S
C1336      H1370   1.081       .  S
N1337      C1622   1.348   1_554  A
C1339      N1663   1.349       .  A
C1339      C1399   1.482       .  S
N1340      N1952   1.319       .  A
N1341      C1367   1.337       .  A
N1341      N1949   1.317       .  A
N1341     Co1357   2.079       .  S
N1342      C1356   1.340       .  A
N1342      N1623   1.319       .  A
N1343      N1947   1.317   1_545  A
N1343      N1371   1.326       .  A
N1343     Co1361   2.081       .  S
H1344      C1367   1.081       .  S
H1345      C1362   1.079       .  S
N1346      N1946   1.319   1_545  A
N1347      N1632   1.319   1_554  A
N1347     Co1361   2.082       .  S
N1348      N1360   1.321       .  A
N1348      N1667   1.318   1_554  A
N1348     Co1357   2.075       .  S
C1349      N1353   1.352       .  A
C1349      C1969   1.462       .  S
C1349      C1423   1.484       .  S
C1350      C1369   1.464       .  S
C1350      H1354   1.080       .  S
N1351      C1362   1.336       .  A
N1351      N1636   1.319   1_554  A
N1351     Co1361   2.080       .  S
C1355      N1371   1.352   1_565  A
C1355      C1973   1.462       .  S
C1355      C1444   1.483       .  S
Co1357    Cl2277   2.445   1_554  S
N1358      C1975   1.351   1_545  A
C1359      N1936   1.346   1_545  A
C1359      C1432   1.488       .  S
N1360      C1642   1.349   1_554  A
Co1361    Cl1671   2.446   1_554  S
C1362      C1637   1.462       .  S
C1363      C1955   1.462       .  S
N1364      N1651   1.318       .  A
C1367      C1961   1.462       .  S
Cl1368    Co1930   2.449   1_545  S
Cl1368    Co2266   2.445   1_545  S
Cl1368    Co1664   2.446       .  S
C1369      N1964   1.351       .  A
C1369      C1459   1.483       .  S
C1372      C1373   1.400       .  A
C1372      C1680   1.414       .  A
C1373      H1382   1.083       .  S
C1373      C1374   1.396       .  A
C1374      C1375   1.412       .  A
C1374      S1378   1.798       .  S
C1375      C1679   1.403       .  A
C1376      H1383   1.084       .  S
C1376      C1678   1.403   1_554  A
C1376      C1377   1.400       .  A
C1377      C1675   1.414   1_554  A
C1377      S1379   1.803       .  S
S1378      H1381   1.407       .  S
S1379      H1380   1.407       .  S
C1384      C1688   1.405       .  A
C1384      C1389   1.415       .  A
C1385      H1394   1.083       .  S
C1385      C1687   1.405   1_554  A
C1385      C1386   1.397       .  A
C1386      C1690   1.416       .  A
C1386      S1390   1.800       .  S
C1387      C1689   1.416       .  A
C1387      C1388   1.405       .  A
C1388      H1395   1.084       .  S
C1388      C1389   1.401       .  A
C1389      S1391   1.800       .  S
S1390      H1393   1.407       .  S
S1391      H1392   1.406       .  S
C1396      C1397   1.406       .  A
C1396      C1704   1.415       .  A
C1397      H1406   1.084       .  S
C1397      C1398   1.402       .  A
C1398      C1399   1.414       .  A
C1398      S1402   1.802       .  S
C1399      C1703   1.403       .  A
C1400      H1407   1.082       .  S
C1400      C1702   1.403   1_554  A
C1400      C1401   1.398       .  A
C1401      C1699   1.415   1_554  A
C1401      S1403   1.808       .  S
S1402      H1405   1.407       .  S
S1403      H1404   1.407       .  S
C1408      C1712   1.403       .  A
C1408      C1413   1.414       .  A
C1409      H1418   1.080       .  S
C1409      C1711   1.403   1_554  A
C1409      C1410   1.400       .  A
C1410      C1714   1.418       .  A
C1410      S1414   1.808       .  S
C1411      C1713   1.418       .  A
C1411      C1412   1.406       .  A
C1412      H1419   1.083       .  S
C1412      C1413   1.403       .  A
C1413      S1415   1.799       .  S
S1414      H1417   1.407       .  S
S1415      H1416   1.407       .  S
C1420      C1421   1.406       .  A
C1420      C2031   1.416       .  A
C1421      H1430   1.083       .  S
C1421      C1422   1.404       .  A
C1422      C1423   1.415       .  A
C1422      S1426   1.803       .  S
C1423      C2030   1.403       .  A
C1424      H1431   1.083       .  S
C1424      C2029   1.403       .  A
C1424      C1425   1.397       .  A
C1425      C2026   1.416       .  A
C1425      S1427   1.802       .  S
S1426      H1429   1.407       .  S
S1427      H1428   1.407       .  S
C1432      C1433   1.405       .  A
C1432      C2043   1.420   1_545  A
C1433      H1442   1.082       .  S
C1433      C1434   1.401       .  A
C1434      C2041   1.414       .  A
C1434      S1438   1.799       .  S
C1435      C2040   1.414       .  A
C1435      C1436   1.402       .  A
C1436      H1443   1.080       .  S
C1436      C1437   1.402       .  A
C1437      C2038   1.420       .  A
C1437      S1439   1.811       .  S
S1438      H1441   1.407       .  S
S1439      H1440   1.407       .  S
C1444      C2051   1.402       .  A
C1444      C1449   1.415   1_565  A
C1445      H1454   1.082       .  S
C1445      C2050   1.402       .  A
C1445      C1446   1.395       .  A
C1446      C2053   1.417       .  A
C1446      S1450   1.801       .  S
C1447      C2052   1.417       .  A
C1447      C1448   1.407   1_565  A
C1448      H1455   1.084       .  S
C1448      C1449   1.403       .  A
C1449      S1451   1.803       .  S
S1450      H1453   1.407       .  S
S1451      H1452   1.407       .  S
C1456      C2063   1.405   1_545  A
C1456      C1461   1.416       .  A
C1457      H1466   1.084       .  S
C1457      C2062   1.405       .  A
C1457      C1458   1.398       .  A
C1458      C1459   1.414       .  A
C1458      S1462   1.801       .  S
C1459      C2066   1.405       .  A
C1460      H1467   1.084       .  S
C1460      C2065   1.405   1_545  A
C1460      C1461   1.401       .  A
C1461      S1463   1.801       .  S
S1462      H1465   1.407       .  S
S1463      H1464   1.407       .  S
C1468      C1469   1.400       .  A
C1469      H1478   1.084       .  S
C1469      C1470   1.397       .  A
C1470      S1474   1.805       .  S
C1471      C1472   1.401       .  A
C1472      H1479   1.084       .  S
C1472      C1473   1.399       .  A
C1473      S1475   1.804       .  S
S1474      H1477   1.405       .  S
S1475      H1476   1.405   1_655  S
C1480      C1481   1.401       .  A
C1481      H1490   1.084       .  S
C1481      C1482   1.400       .  A
C1482      C1483   1.411       .  A
C1482      S1486   1.802       .  S
C1484      H1491   1.084       .  S
C1484      C1485   1.399       .  A
C1485      S1487   1.805       .  S
S1486      H1489   1.405   1_655  S
S1487      H1488   1.405       .  S
C1492      C1493   1.402       .  A
C1493      H1502   1.084       .  S
C1493      C1494   1.400       .  A
C1494      S1498   1.804       .  S
C1495      C1496   1.401       .  A
C1496      H1503   1.084       .  S
C1496      C1497   1.398       .  A
C1497      S1499   1.804       .  S
S1498      H1501   1.407       .  S
C1504      C1505   1.404       .  A
C1505      H1514   1.083       .  S
C1505      C1506   1.398       .  A
C1506      C1507   1.414       .  A
C1506      S1510   1.802       .  S
C1508      H1515   1.083       .  S
C1508      C1509   1.400       .  A
C1509      S1511   1.803       .  S
S1510      H1513   1.407       .  S
S1511      H1512   1.407       .  S
C1516      N1534   1.354   1_565  A
C1516      C2159   1.462       .  S
C1516      C1750   1.486       .  S
N1517      N1534   1.326       .  A
N1517      N2145   1.318   1_545  A
N1517     Co1554   2.087       .  S
C1518      N1543   1.342       .  A
C1518      C1556   1.458       .  S
C1518      H1563   1.081       .  S
H1519      C1560   1.081       .  S
C1520      N1544   1.342       .  A
C1520      C1524   1.467       .  S
C1520      H1549   1.080       .  S
Co1521     N1539   2.077       .  S
Co1521     N1529   2.081       .  S
Co1521     N1561   2.090       .  S
Co1521     N1537   2.077       .  S
Co1521    Cl2171   2.447       .  S
N1522      C1560   1.340       .  A
N1522     Co1523   2.083       .  S
Co1523     N1526   2.083       .  S
Co1523     N1543   2.089       .  S
Co1523     N1530   2.088       .  S
C1524      N2168   1.351   1_545  A
C1524      C1759   1.486       .  S
N1525      N1555   1.324       .  A
N1525     Co1558   2.086       .  S
N1526      N2150   1.318       .  A
N1526      N1562   1.323       .  A
N1527      N1537   1.323       .  A
H1528      C1553   1.079       .  S
N1529      N1550   1.325       .  A
N1530      N2154   1.319       .  A
N1530      N1535   1.326       .  A
C1531      N1535   1.353       .  A
C1531      C2165   1.462       .  S
C1531      C1723   1.485       .  S
N1532      C1547   1.339       .  A
N1532     Co1554   2.079       .  S
C1533      N1561   1.341       .  A
C1533      C1536   1.466       .  S
C1533      H1567   1.081       .  S
C1536      N2163   1.349       .  A
C1536      C1738   1.485       .  S
N1538      C1564   1.339       .  A
N1538     Co1554   2.080       .  S
N1539      C1553   1.336       .  A
N1539      N2123   1.318       .  A
N1540      N1568   1.324       .  A
N1540     Co1558   2.081       .  S
H1541      C1564   1.081       .  S
H1542      C1559   1.080       .  S
N1544      N2132   1.318   1_545  A
N1544     Co1558   2.086       .  S
N1545      N1557   1.324       .  A
N1545      N2167   1.319   1_545  A
N1545     Co1554   2.079       .  S
C1546      N1550   1.348       .  A
C1546      C1798   1.468       .  S
C1547      C1566   1.461       .  S
C1547      H1551   1.081       .  S
N1548      C1559   1.338       .  A
N1548      N2136   1.319   1_545  A
N1548     Co1558   2.083       .  S
C1552      N1568   1.348       .  A
C1552      C1774   1.463       .  S
C1553      C2122   1.462       .  S
Co1554    Cl1565   2.454       .  S
C1556      C1783   1.467       .  S
N1557      C2142   1.349   1_545  A
C1559      C2137   1.462       .  S
N1561      N2151   1.319       .  A
N1562      C2130   1.351       .  A
Cl1565    Co2127   2.447   1_545  S
C1566      C1810   1.479       .  S
C1569      N1587   1.351       .  A
C1569      C1807   1.480       .  S
N1570      N1587   1.323       .  A
N1570     Co1607   2.080       .  S
C1571      N1596   1.340       .  A
C1571      C1609   1.459       .  S
C1571      H1616   1.081       .  S
H1572      C1613   1.080       .  S
C1573      N1597   1.339       .  A
C1573      C1577   1.453       .  S
C1573      H1602   1.081       .  S
Co1574     N1592   2.082       .  S
Co1574     N1582   2.078       .  S
Co1574     N1614   2.081       .  S
Co1574     N1590   2.084       .  S
N1575      C1613   1.342       .  A
N1575     Co1576   2.089       .  S
Co1576     N1579   2.086       .  S
Co1576     N1596   2.083       .  S
Co1576     N1583   2.091       .  S
Co1576    Cl1618   2.447       .  S
C1577      C1771   1.463       .  S
N1578      N1608   1.326       .  A
N1578     Co1611   2.085       .  S
N1579      N1615   1.325       .  A
N1580      N1590   1.325       .  A
H1581      C1606   1.081       .  S
N1582      N1603   1.322       .  A
N1583      N1588   1.325       .  A
C1584      N1588   1.349       .  A
C1584      C1786   1.468       .  S
N1585      C1600   1.338       .  A
N1585     Co1607   2.082       .  S
C1586      N1614   1.341       .  A
C1586      C1589   1.456       .  S
C1586      H1620   1.082       .  S
C1589      C1795   1.468       .  S
N1591      C1617   1.337       .  A
N1591     Co1607   2.080       .  S
N1592      C1606   1.340       .  A
N1593      N1621   1.325       .  A
N1593     Co1611   2.084       .  S
H1594      C1617   1.080       .  S
H1595      C1612   1.081       .  S
N1597     Co1611   2.077       .  S
N1598      N1610   1.324       .  A
N1598     Co1607   2.083       .  S
C1599      C1613   1.467       .  S
C1599      C1687   1.486       .  S
C1600      H1604   1.082       .  S
N1601      C1612   1.340       .  A
N1601     Co1611   2.081       .  S
C1605      N1621   1.351       .  A
C1605      C1699   1.481       .  S
N1608      C1619   1.352       .  A
C1609      C1678   1.476       .  S
C1619      C1711   1.487       .  S
C1622      C1659   1.459       .  S
C1622      C1675   1.474       .  S
N1623      N1640   1.324       .  A
N1623     Co1660   2.079       .  S
C1624      N1649   1.345       .  A
C1624      C1662   1.470       .  S
C1624      H1669   1.081       .  S
H1625      C1666   1.081       .  S
C1626      N1650   1.340       .  A
C1626      H1655   1.080       .  S
Co1627     N1645   2.080       .  S
Co1627     N1635   2.088       .  S
Co1627     N1667   2.087       .  S
Co1627     N1643   2.073       .  S
Co1627    Cl2277   2.449       .  S
N1628      C1666   1.339       .  A
N1628      N2241   1.320   1_545  A
N1628     Co1629   2.088       .  S
Co1629     N1632   2.087       .  S
Co1629     N1649   2.095       .  S
Co1629     N1636   2.091       .  S
Co1629    Cl1671   2.456       .  S
C1630      N1668   1.352   1_554  A
C1630      C1690   1.484       .  S
N1631      N2244   1.319   1_545  A
N1631      N1661   1.324       .  A
N1631     Co1664   2.084       .  S
N1632      N1668   1.324       .  A
N1633      C2268   1.346       .  A
N1633      N1643   1.320       .  A
H1634      C1659   1.082       .  S
N1635      N2234   1.320       .  A
N1635      N1656   1.326       .  A
N1636      N1641   1.327       .  A
C1637      N1641   1.355   1_554  A
C1637      C1714   1.488       .  S
N1638      C1653   1.340       .  A
N1638      N2237   1.319       .  A
N1638     Co1660   2.083       .  S
C1639      N1667   1.343       .  A
C1639      C1642   1.466       .  S
C1639      H1673   1.081       .  S
C1642      C1702   1.482       .  S
N1643      N2255   1.319       .  A
N1644      C1670   1.337       .  A
N1644      N2252   1.317       .  A
N1644     Co1660   2.079       .  S
N1645      C1659   1.340       .  A
N1646      N2250   1.317   1_545  A
N1646      N1674   1.326       .  A
N1646     Co1664   2.081       .  S
H1647      C1670   1.081       .  S
H1648      C1665   1.079       .  S
N1649      N2249   1.319   1_545  A
N1650     Co1664   2.082       .  S
N1651      N1663   1.321       .  A
N1651     Co1660   2.075       .  S
C1652      N1656   1.352       .  A
C1652      C2272   1.462       .  S
C1652      C1726   1.484       .  S
C1653      C1672   1.464       .  S
C1653      H1657   1.080       .  S
N1654      C1665   1.336       .  A
N1654     Co1664   2.080       .  S
C1658      N1674   1.352   1_565  A
C1658      C2276   1.462       .  S
C1658      C1747   1.483       .  S
Co1660    Cl1974   2.445       .  S
N1661      C2278   1.351   1_545  A
C1662      N2239   1.346   1_545  A
C1662      C1735   1.488       .  S
C1666      C2258   1.462       .  S
C1670      C2264   1.462       .  S
Cl1671    Co2233   2.449   1_545  S
Cl1671    Co1963   2.445   1_546  S
C1672      N2267   1.351       .  A
C1672      C1762   1.483       .  S
C1675      C1676   1.400       .  A
C1676      H1685   1.083       .  S
C1676      C1677   1.396       .  A
C1677      C1678   1.412       .  A
C1677      S1681   1.798       .  S
C1679      H1686   1.084       .  S
C1679      C1680   1.400       .  A
C1680      S1682   1.803       .  S
S1681      H1684   1.407       .  S
S1682      H1683   1.407       .  S
C1687      C1692   1.415       .  A
C1688      H1697   1.083       .  S
C1688      C1689   1.397       .  A
C1689      S1693   1.800       .  S
C1690      C1691   1.405   1_554  A
C1691      H1698   1.084       .  S
C1691      C1692   1.401       .  A
C1692      S1694   1.800       .  S
S1693      H1696   1.407       .  S
S1694      H1695   1.406       .  S
C1699      C1700   1.406       .  A
C1700      H1709   1.084       .  S
C1700      C1701   1.402       .  A
C1701      C1702   1.414       .  A
C1701      S1705   1.802       .  S
C1703      H1710   1.082       .  S
C1703      C1704   1.398       .  A
C1704      S1706   1.808       .  S
S1705      H1708   1.407       .  S
S1706      H1707   1.407       .  S
C1711      C1716   1.414       .  A
C1712      H1721   1.080       .  S
C1712      C1713   1.400       .  A
C1713      S1717   1.808       .  S
C1714      C1715   1.406   1_554  A
C1715      H1722   1.083       .  S
C1715      C1716   1.403       .  A
C1716      S1718   1.799       .  S
S1717      H1720   1.407       .  S
S1718      H1719   1.407       .  S
C1723      C1724   1.406       .  A
C1723      C2334   1.416       .  A
C1724      H1733   1.083       .  S
C1724      C1725   1.404       .  A
C1725      C1726   1.415       .  A
C1725      S1729   1.803       .  S
C1726      C2333   1.403       .  A
C1727      H1734   1.083       .  S
C1727      C2332   1.403       .  A
C1727      C1728   1.397       .  A
C1728      C2329   1.416       .  A
C1728      S1730   1.802       .  S
S1729      H1732   1.407       .  S
S1730      H1731   1.407       .  S
C1735      C1736   1.405       .  A
C1735      C2346   1.420   1_545  A
C1736      H1745   1.082       .  S
C1736      C1737   1.401       .  A
C1737      C2344   1.414       .  A
C1737      S1741   1.799       .  S
C1738      C2343   1.414       .  A
C1738      C1739   1.402       .  A
C1739      H1746   1.080       .  S
C1739      C1740   1.402       .  A
C1740      C2341   1.420       .  A
C1740      S1742   1.811       .  S
S1741      H1744   1.407       .  S
S1742      H1743   1.407       .  S
C1747      C2354   1.402       .  A
C1747      C1752   1.415   1_565  A
C1748      H1757   1.082       .  S
C1748      C2353   1.402       .  A
C1748      C1749   1.395       .  A
C1749      C2356   1.417       .  A
C1749      S1753   1.801       .  S
C1750      C2355   1.417       .  A
C1750      C1751   1.407   1_565  A
C1751      H1758   1.084       .  S
C1751      C1752   1.403       .  A
C1752      S1754   1.803       .  S
S1753      H1756   1.407       .  S
S1754      H1755   1.407       .  S
C1759      C2366   1.405   1_545  A
C1759      C1764   1.416       .  A
C1760      H1769   1.084       .  S
C1760      C2365   1.405       .  A
C1760      C1761   1.398       .  A
C1761      C1762   1.414       .  A
C1761      S1765   1.801       .  S
C1762      C2369   1.405       .  A
C1763      H1770   1.084       .  S
C1763      C2368   1.405   1_545  A
C1763      C1764   1.401       .  A
C1764      S1766   1.801       .  S
S1765      H1768   1.407       .  S
S1766      H1767   1.407       .  S
C1771      C1772   1.400       .  A
C1772      H1781   1.084       .  S
C1772      C1773   1.397       .  A
C1773      S1777   1.805       .  S
C1774      C1775   1.401       .  A
C1775      H1782   1.084       .  S
C1775      C1776   1.399       .  A
C1776      S1778   1.804       .  S
S1777      H1780   1.405       .  S
S1778      H1779   1.405   1_655  S
C1783      C1784   1.401       .  A
C1784      H1793   1.084       .  S
C1784      C1785   1.400       .  A
C1785      C1786   1.411       .  A
C1785      S1789   1.802       .  S
C1787      H1794   1.084       .  S
C1787      C1788   1.399       .  A
C1788      S1790   1.805       .  S
S1789      H1792   1.405   1_655  S
S1790      H1791   1.405       .  S
C1795      C1796   1.402       .  A
C1796      H1805   1.084       .  S
C1796      C1797   1.400       .  A
C1797      S1801   1.804       .  S
C1798      C1799   1.401       .  A
C1799      H1806   1.084       .  S
C1799      C1800   1.398       .  A
C1800      S1802   1.804       .  S
S1801      H1804   1.407       .  S
C1807      C1808   1.404       .  A
C1808      H1817   1.083       .  S
C1808      C1809   1.398       .  A
C1809      C1810   1.414       .  A
C1809      S1813   1.802       .  S
C1811      H1818   1.083       .  S
C1811      C1812   1.400       .  A
C1812      S1814   1.803       .  S
S1813      H1816   1.407       .  S
S1814      H1815   1.407       .  S
C1819      N1837   1.354       .  A
C1819      C2053   1.486       .  S
N1820      N1837   1.326       .  A
N1820     Co1857   2.087       .  S
C1821      N1846   1.342       .  A
C1821      C1859   1.458       .  S
C1821      H1866   1.081       .  S
H1822      C1863   1.081       .  S
C1823      N1847   1.342       .  A
C1823      C1827   1.467       .  S
C1823      H1852   1.080       .  S
Co1824     N1842   2.077       .  S
Co1824     N1832   2.081       .  S
Co1824     N1864   2.090       .  S
Co1824     N1840   2.077       .  S
N1825      C1863   1.340       .  A
N1825     Co1826   2.083       .  S
Co1826     N1829   2.083       .  S
Co1826     N1846   2.089       .  S
Co1826     N1833   2.088       .  S
C1827      C2062   1.486       .  S
N1828      N1858   1.324       .  A
N1828     Co1861   2.086       .  S
N1829      N1865   1.323       .  A
N1830      N1840   1.323       .  A
H1831      C1856   1.079       .  S
N1832      N1853   1.325       .  A
N1833      N1838   1.326       .  A
C1834      N1838   1.353   1_545  A
C1834      C2026   1.485       .  S
N1835      C1850   1.339       .  A
N1835     Co1857   2.079       .  S
C1836      N1864   1.341       .  A
C1836      C1839   1.466       .  S
C1836      H1870   1.081       .  S
C1839      C2041   1.485   1_565  S
N1841      C1867   1.339       .  A
N1841     Co1857   2.080       .  S
N1842      C1856   1.336       .  A
N1843      N1871   1.324       .  A
N1843     Co1861   2.081       .  S
H1844      C1867   1.081       .  S
H1845      C1862   1.080       .  S
N1847     Co1861   2.086       .  S
N1848      N1860   1.324       .  A
N1848     Co1857   2.079       .  S
C1849      N1853   1.348       .  A
C1849      C2101   1.468       .  S
C1850      C1869   1.461       .  S
C1850      H1854   1.081       .  S
N1851      C1862   1.338       .  A
N1851     Co1861   2.083       .  S
C1855      N1871   1.348       .  A
C1855      C2077   1.463       .  S
Co1857    Cl1868   2.454       .  S
C1859      C2086   1.467       .  S
C1869      C2113   1.479       .  S
C1872      N1890   1.351       .  A
C1872      C2110   1.480       .  S
N1873      N1890   1.323       .  A
N1873     Co1910   2.080       .  S
C1874      N1899   1.340       .  A
C1874      C1912   1.459       .  S
C1874      H1919   1.081       .  S
H1875      C1916   1.080       .  S
C1876      N1900   1.339       .  A
C1876      C1880   1.453       .  S
C1876      H1905   1.081       .  S
Co1877     N1895   2.082       .  S
Co1877     N1885   2.078       .  S
Co1877     N1917   2.081       .  S
Co1877     N1893   2.084       .  S
Co1877    Cl2224   2.451   1_554  S
N1878      C1916   1.342       .  A
N1878      N2188   1.318       .  A
N1878     Co1879   2.089       .  S
Co1879     N1882   2.086       .  S
Co1879     N1899   2.083       .  S
Co1879     N1886   2.091       .  S
Co1879    Cl1921   2.447       .  S
C1880      C2074   1.463       .  S
N1881      N2191   1.318       .  A
N1881      N1911   1.326       .  A
N1881     Co1914   2.085       .  S
N1882      N1918   1.325       .  A
N1883      C2215   1.350   1_554  A
N1883      N1893   1.325       .  A
H1884      C1909   1.081       .  S
N1885      N2181   1.318   1_554  A
N1885      N1906   1.322       .  A
N1886      N1891   1.325       .  A
C1887      N1891   1.349       .  A
C1887      C2089   1.468       .  S
N1888      C1903   1.338       .  A
N1888      N2184   1.318   1_554  A
N1888     Co1910   2.082       .  S
C1889      N1917   1.341       .  A
C1889      C1892   1.456       .  S
C1889      H1923   1.082       .  S
C1892      C2098   1.468       .  S
N1893      N2202   1.320   1_554  A
N1894      C1920   1.337       .  A
N1894      N2199   1.319   1_554  A
N1894     Co1910   2.080       .  S
N1895      C1909   1.340       .  A
N1896      N2197   1.319       .  A
N1896      N1924   1.325       .  A
N1896     Co1914   2.084       .  S
H1897      C1920   1.080       .  S
H1898      C1915   1.081       .  S
N1899      N2196   1.320       .  A
N1900     Co1914   2.077       .  S
N1901      N1913   1.324       .  A
N1901     Co1910   2.083       .  S
C1902      N2209   1.350       .  A
C1902      C1916   1.467       .  S
C1902      C1990   1.486       .  S
C1903      C2225   1.463   1_554  S
C1903      H1907   1.082       .  S
N1904      C1915   1.340       .  A
N1904     Co1914   2.081       .  S
N1906      C2205   1.350   1_554  A
C1908      N1924   1.351       .  A
C1908      C2223   1.462       .  S
C1908      C2002   1.481       .  S
N1911      C1922   1.352       .  A
C1912      N2186   1.350       .  A
C1912      C1981   1.476       .  S
C1920      C2211   1.462   1_554  S
Cl1921    Co2180   2.451       .  S
C1922      C2206   1.463       .  S
C1922      C2014   1.487       .  S
C1925      N2246   1.348       .  A
C1925      C1962   1.459       .  S
C1925      C1978   1.474       .  S
N1926      N1943   1.324       .  A
N1926      N2251   1.319   1_554  A
N1926     Co1963   2.079       .  S
C1927      N1952   1.345       .  A
C1927      C1965   1.470       .  S
C1927      H1972   1.081       .  S
H1928      C1969   1.081       .  S
C1929      N1953   1.340       .  A
C1929      C2236   1.463       .  S
C1929      H1958   1.080       .  S
Co1930     N1948   2.080       .  S
Co1930     N1938   2.088       .  S
Co1930     N1970   2.087       .  S
Co1930     N1946   2.073       .  S
N1931      C1969   1.339       .  A
N1931     Co1932   2.088       .  S
Co1932     N1935   2.087       .  S
Co1932     N1952   2.095       .  S
Co1932     N1939   2.091       .  S
Co1932    Cl1974   2.456       .  S
C1933      N1971   1.352       .  A
C1933      C2232   1.463       .  S
C1933      C1993   1.484       .  S
N1934      N1964   1.324       .  A
N1934     Co1967   2.084       .  S
N1935      N2256   1.319       .  A
N1935      N1971   1.324       .  A
N1936      N1946   1.320       .  A
H1937      C1962   1.082       .  S
N1938      N1959   1.326       .  A
N1939      N2260   1.319       .  A
N1939      N1944   1.327       .  A
C1940      N1944   1.355       .  A
C1940      C2271   1.462       .  S
C1940      C2017   1.488       .  S
N1941      C1956   1.340       .  A
N1941     Co1963   2.083       .  S
C1942      N1970   1.343       .  A
C1942      C1945   1.466       .  S
C1942      H1976   1.081       .  S
N1943      C2228   1.348   1_554  A
C1945      N2269   1.349       .  A
C1945      C2005   1.482       .  S
N1947      C1973   1.337       .  A
N1947     Co1963   2.079       .  S
N1948      C1962   1.340       .  A
N1948      N2229   1.319       .  A
N1949      N1977   1.326       .  A
N1949     Co1967   2.081       .  S
H1950      C1973   1.081       .  S
H1951      C1968   1.079       .  S
N1953      N2238   1.319   1_554  A
N1953     Co1967   2.082       .  S
N1954      N1966   1.321       .  A
N1954      N2273   1.318   1_554  A
N1954     Co1963   2.075       .  S
C1955      N1959   1.352   1_545  A
C1955      C2029   1.484       .  S
C1956      C1975   1.464       .  S
C1956      H1960   1.080       .  S
N1957      C1968   1.336       .  A
N1957      N2242   1.319   1_554  A
N1957     Co1967   2.080       .  S
C1961      N1977   1.352       .  A
C1961      C2050   1.483       .  S
C1965      C2038   1.488       .  S
N1966      C2248   1.349   1_554  A
Co1967    Cl2277   2.446   1_554  S
C1968      C2243   1.462       .  S
N1970      N2257   1.318       .  A
Cl1974    Co2270   2.446       .  S
C1975      C2065   1.483       .  S
C1978      C1979   1.400       .  A
C1978      C2286   1.414       .  A
C1979      H1988   1.083       .  S
C1979      C1980   1.396       .  A
C1980      C1981   1.412       .  A
C1980      S1984   1.798       .  S
C1981      C2285   1.403       .  A
C1982      H1989   1.084       .  S
C1982      C2284   1.403   1_554  A
C1982      C1983   1.400       .  A
C1983      C2281   1.414   1_554  A
C1983      S1985   1.803       .  S
S1984      H1987   1.407       .  S
S1985      H1986   1.407       .  S
C1990      C2294   1.405       .  A
C1990      C1995   1.415       .  A
C1991      H2000   1.083       .  S
C1991      C2293   1.405   1_554  A
C1991      C1992   1.397       .  A
C1992      C2296   1.416       .  A
C1992      S1996   1.800       .  S
C1993      C2295   1.416       .  A
C1993      C1994   1.405       .  A
C1994      H2001   1.084       .  S
C1994      C1995   1.401       .  A
C1995      S1997   1.800       .  S
S1996      H1999   1.407       .  S
S1997      H1998   1.406       .  S
C2002      C2003   1.406       .  A
C2002      C2310   1.415       .  A
C2003      H2012   1.084       .  S
C2003      C2004   1.402       .  A
C2004      C2005   1.414       .  A
C2004      S2008   1.802       .  S
C2005      C2309   1.403       .  A
C2006      H2013   1.082       .  S
C2006      C2308   1.403   1_554  A
C2006      C2007   1.398       .  A
C2007      C2305   1.415   1_554  A
C2007      S2009   1.808       .  S
S2008      H2011   1.407       .  S
S2009      H2010   1.407       .  S
C2014      C2318   1.403       .  A
C2014      C2019   1.414       .  A
C2015      H2024   1.080       .  S
C2015      C2317   1.403   1_554  A
C2015      C2016   1.400       .  A
C2016      C2320   1.418       .  A
C2016      S2020   1.808       .  S
C2017      C2319   1.418       .  A
C2017      C2018   1.406       .  A
C2018      H2025   1.083       .  S
C2018      C2019   1.403       .  A
C2019      S2021   1.799       .  S
S2020      H2023   1.407       .  S
S2021      H2022   1.407       .  S
C2026      C2027   1.406   1_545  A
C2027      H2036   1.083       .  S
C2027      C2028   1.404       .  A
C2028      C2029   1.415   1_565  A
C2028      S2032   1.803       .  S
C2030      H2037   1.083       .  S
C2030      C2031   1.397       .  A
C2031      S2033   1.802       .  S
S2032      H2035   1.407       .  S
S2033      H2034   1.407       .  S
C2038      C2039   1.405       .  A
C2039      H2048   1.082       .  S
C2039      C2040   1.401       .  A
C2040      S2044   1.799       .  S
C2041      C2042   1.402   1_545  A
C2042      H2049   1.080       .  S
C2042      C2043   1.402       .  A
C2043      S2045   1.811       .  S
S2044      H2047   1.407       .  S
S2045      H2046   1.407       .  S
C2050      C2055   1.415       .  A
C2051      H2060   1.082       .  S
C2051      C2052   1.395       .  A
C2052      S2056   1.801       .  S
C2053      C2054   1.407       .  A
C2054      H2061   1.084       .  S
C2054      C2055   1.403       .  A
C2055      S2057   1.803       .  S
S2056      H2059   1.407       .  S
S2057      H2058   1.407       .  S
C2062      C2067   1.416       .  A
C2063      H2072   1.084       .  S
C2063      C2064   1.398       .  A
C2064      C2065   1.414       .  A
C2064      S2068   1.801       .  S
C2066      H2073   1.084       .  S
C2066      C2067   1.401       .  A
C2067      S2069   1.801       .  S
S2068      H2071   1.407       .  S
S2069      H2070   1.407       .  S
C2074      C2075   1.400       .  A
C2075      H2084   1.084       .  S
C2075      C2076   1.397       .  A
C2076      S2080   1.805       .  S
C2077      C2078   1.401       .  A
C2078      H2085   1.084       .  S
C2078      C2079   1.399       .  A
C2079      S2081   1.804       .  S
S2080      H2083   1.405       .  S
S2081      H2082   1.405   1_655  S
C2086      C2087   1.401       .  A
C2087      H2096   1.084       .  S
C2087      C2088   1.400       .  A
C2088      C2089   1.411       .  A
C2088      S2092   1.802       .  S
C2090      H2097   1.084       .  S
C2090      C2091   1.399       .  A
C2091      S2093   1.805       .  S
S2092      H2095   1.405   1_655  S
S2093      H2094   1.405       .  S
C2098      C2099   1.402       .  A
C2099      H2108   1.084       .  S
C2099      C2100   1.400       .  A
C2100      S2104   1.804       .  S
C2101      C2102   1.401       .  A
C2102      H2109   1.084       .  S
C2102      C2103   1.398       .  A
C2103      S2105   1.804       .  S
S2104      H2107   1.407       .  S
C2110      C2111   1.404       .  A
C2111      H2120   1.083       .  S
C2111      C2112   1.398       .  A
C2112      C2113   1.414       .  A
C2112      S2116   1.802       .  S
C2114      H2121   1.083       .  S
C2114      C2115   1.400       .  A
C2115      S2117   1.803       .  S
S2116      H2119   1.407       .  S
S2117      H2118   1.407       .  S
C2122      N2140   1.354       .  A
C2122      C2356   1.486       .  S
N2123      N2140   1.326       .  A
N2123     Co2160   2.087       .  S
C2124      N2149   1.342       .  A
C2124      C2162   1.458       .  S
C2124      H2169   1.081       .  S
H2125      C2166   1.081       .  S
C2126      N2150   1.342       .  A
C2126      C2130   1.467       .  S
C2126      H2155   1.080       .  S
Co2127     N2145   2.077       .  S
Co2127     N2135   2.081       .  S
Co2127     N2167   2.090       .  S
Co2127     N2143   2.077       .  S
N2128      C2166   1.340       .  A
N2128     Co2129   2.083       .  S
Co2129     N2132   2.083       .  S
Co2129     N2149   2.089       .  S
Co2129     N2136   2.088       .  S
C2130      C2365   1.486       .  S
N2131      N2161   1.324       .  A
N2131     Co2164   2.086       .  S
N2132      N2168   1.323       .  A
N2133      N2143   1.323       .  A
H2134      C2159   1.079       .  S
N2135      N2156   1.325       .  A
N2136      N2141   1.326       .  A
C2137      N2141   1.353   1_545  A
C2137      C2329   1.485       .  S
N2138      C2153   1.339       .  A
N2138     Co2160   2.079       .  S
C2139      N2167   1.341       .  A
C2139      C2142   1.466       .  S
C2139      H2173   1.081       .  S
C2142      C2344   1.485   1_565  S
N2144      C2170   1.339       .  A
N2144     Co2160   2.080       .  S
N2145      C2159   1.336       .  A
N2146      N2174   1.324       .  A
N2146     Co2164   2.081       .  S
H2147      C2170   1.081       .  S
H2148      C2165   1.080       .  S
N2150     Co2164   2.086       .  S
N2151      N2163   1.324       .  A
N2151     Co2160   2.079       .  S
C2152      N2156   1.348       .  A
C2152      C2404   1.468       .  S
C2153      C2172   1.461       .  S
C2153      H2157   1.081       .  S
N2154      C2165   1.338       .  A
N2154     Co2164   2.083       .  S
C2158      N2174   1.348       .  A
C2158      C2380   1.463       .  S
Co2160    Cl2171   2.454       .  S
C2162      C2389   1.467       .  S
C2172      C2416   1.479       .  S
C2175      N2193   1.351       .  A
C2175      C2413   1.480       .  S
N2176      N2193   1.323       .  A
N2176     Co2213   2.080       .  S
C2177      N2202   1.340       .  A
C2177      C2215   1.459       .  S
C2177      H2222   1.081       .  S
H2178      C2219   1.080       .  S
C2179      N2203   1.339       .  A
C2179      C2183   1.453       .  S
C2179      H2208   1.081       .  S
Co2180     N2198   2.082       .  S
Co2180     N2188   2.078       .  S
Co2180     N2220   2.081       .  S
Co2180     N2196   2.084       .  S
N2181      C2219   1.342       .  A
N2181     Co2182   2.089       .  S
Co2182     N2185   2.086       .  S
Co2182     N2202   2.083       .  S
Co2182     N2189   2.091       .  S
Co2182    Cl2224   2.447       .  S
C2183      C2377   1.463       .  S
N2184      N2214   1.326       .  A
N2184     Co2217   2.085       .  S
N2185      N2221   1.325       .  A
N2186      N2196   1.325       .  A
H2187      C2212   1.081       .  S
N2188      N2209   1.322       .  A
N2189      N2194   1.325       .  A
C2190      N2194   1.349       .  A
C2190      C2392   1.468       .  S
N2191      C2206   1.338       .  A
N2191     Co2213   2.082       .  S
C2192      N2220   1.341       .  A
C2192      C2195   1.456       .  S
C2192      H2226   1.082       .  S
C2195      C2401   1.468       .  S
N2197      C2223   1.337       .  A
N2197     Co2213   2.080       .  S
N2198      C2212   1.340       .  A
N2199      N2227   1.325       .  A
N2199     Co2217   2.084       .  S
H2200      C2223   1.080       .  S
H2201      C2218   1.081       .  S
N2203     Co2217   2.077       .  S
N2204      N2216   1.324       .  A
N2204     Co2213   2.083       .  S
C2205      C2219   1.467       .  S
C2205      C2293   1.486       .  S
C2206      H2210   1.082       .  S
N2207      C2218   1.340       .  A
N2207     Co2217   2.081       .  S
C2211      N2227   1.351       .  A
C2211      C2305   1.481       .  S
N2214      C2225   1.352       .  A
C2215      C2284   1.476       .  S
C2225      C2317   1.487       .  S
C2228      C2265   1.459       .  S
C2228      C2281   1.474       .  S
N2229      N2246   1.324       .  A
N2229     Co2266   2.079       .  S
C2230      N2255   1.345       .  A
C2230      C2268   1.470       .  S
C2230      H2275   1.081       .  S
H2231      C2272   1.081       .  S
C2232      N2256   1.340       .  A
C2232      H2261   1.080       .  S
Co2233     N2251   2.080       .  S
Co2233     N2241   2.088       .  S
Co2233     N2273   2.087       .  S
Co2233     N2249   2.073       .  S
N2234      C2272   1.339       .  A
N2234     Co2235   2.088       .  S
Co2235     N2238   2.087       .  S
Co2235     N2255   2.095       .  S
Co2235     N2242   2.091       .  S
Co2235    Cl2277   2.456       .  S
C2236      N2274   1.352   1_554  A
C2236      C2296   1.484       .  S
N2237      N2267   1.324       .  A
N2237     Co2270   2.084       .  S
N2238      N2274   1.324       .  A
N2239      N2249   1.320       .  A
H2240      C2265   1.082       .  S
N2241      N2262   1.326       .  A
N2242      N2247   1.327       .  A
C2243      N2247   1.355   1_554  A
C2243      C2320   1.488       .  S
N2244      C2259   1.340       .  A
N2244     Co2266   2.083       .  S
C2245      N2273   1.343       .  A
C2245      C2248   1.466       .  S
C2245      H2279   1.081       .  S
C2248      C2308   1.482       .  S
N2250      C2276   1.337       .  A
N2250     Co2266   2.079       .  S
N2251      C2265   1.340       .  A
N2252      N2280   1.326       .  A
N2252     Co2270   2.081       .  S
H2253      C2276   1.081       .  S
H2254      C2271   1.079       .  S
N2256     Co2270   2.082       .  S
N2257      N2269   1.321       .  A
N2257     Co2266   2.075       .  S
C2258      N2262   1.352   1_545  A
C2258      C2332   1.484       .  S
C2259      C2278   1.464       .  S
C2259      H2263   1.080       .  S
N2260      C2271   1.336       .  A
N2260     Co2270   2.080       .  S
C2264      N2280   1.352       .  A
C2264      C2353   1.483       .  S
C2268      C2341   1.488       .  S
C2278      C2368   1.483       .  S
C2281      C2282   1.400       .  A
C2282      H2291   1.083       .  S
C2282      C2283   1.396       .  A
C2283      C2284   1.412       .  A
C2283      S2287   1.798       .  S
C2285      H2292   1.084       .  S
C2285      C2286   1.400       .  A
C2286      S2288   1.803       .  S
S2287      H2290   1.407       .  S
S2288      H2289   1.407       .  S
C2293      C2298   1.415       .  A
C2294      H2303   1.083       .  S
C2294      C2295   1.397       .  A
C2295      S2299   1.800       .  S
C2296      C2297   1.405   1_554  A
C2297      H2304   1.084       .  S
C2297      C2298   1.401       .  A
C2298      S2300   1.800       .  S
S2299      H2302   1.407       .  S
S2300      H2301   1.406       .  S
C2305      C2306   1.406       .  A
C2306      H2315   1.084       .  S
C2306      C2307   1.402       .  A
C2307      C2308   1.414       .  A
C2307      S2311   1.802       .  S
C2309      H2316   1.082       .  S
C2309      C2310   1.398       .  A
C2310      S2312   1.808       .  S
S2311      H2314   1.407       .  S
S2312      H2313   1.407       .  S
C2317      C2322   1.414       .  A
C2318      H2327   1.080       .  S
C2318      C2319   1.400       .  A
C2319      S2323   1.808       .  S
C2320      C2321   1.406   1_554  A
C2321      H2328   1.083       .  S
C2321      C2322   1.403       .  A
C2322      S2324   1.799       .  S
S2323      H2326   1.407       .  S
S2324      H2325   1.407       .  S
C2329      C2330   1.406   1_545  A
C2330      H2339   1.083       .  S
C2330      C2331   1.404       .  A
C2331      C2332   1.415   1_565  A
C2331      S2335   1.803       .  S
C2333      H2340   1.083       .  S
C2333      C2334   1.397       .  A
C2334      S2336   1.802       .  S
S2335      H2338   1.407       .  S
S2336      H2337   1.407       .  S
C2341      C2342   1.405       .  A
C2342      H2351   1.082       .  S
C2342      C2343   1.401       .  A
C2343      S2347   1.799       .  S
C2344      C2345   1.402   1_545  A
C2345      H2352   1.080       .  S
C2345      C2346   1.402       .  A
C2346      S2348   1.811       .  S
S2347      H2350   1.407       .  S
S2348      H2349   1.407       .  S
C2353      C2358   1.415       .  A
C2354      H2363   1.082       .  S
C2354      C2355   1.395       .  A
C2355      S2359   1.801       .  S
C2356      C2357   1.407       .  A
C2357      H2364   1.084       .  S
C2357      C2358   1.403       .  A
C2358      S2360   1.803       .  S
S2359      H2362   1.407       .  S
S2360      H2361   1.407       .  S
C2365      C2370   1.416       .  A
C2366      H2375   1.084       .  S
C2366      C2367   1.398       .  A
C2367      C2368   1.414       .  A
C2367      S2371   1.801       .  S
C2369      H2376   1.084       .  S
C2369      C2370   1.401       .  A
C2370      S2372   1.801       .  S
S2371      H2374   1.407       .  S
S2372      H2373   1.407       .  S
C2377      C2378   1.400       .  A
C2378      H2387   1.084       .  S
C2378      C2379   1.397       .  A
C2379      S2383   1.805       .  S
C2380      C2381   1.401       .  A
C2381      H2388   1.084       .  S
C2381      C2382   1.399       .  A
C2382      S2384   1.804       .  S
S2383      H2386   1.405       .  S
S2384      H2385   1.405   1_655  S
C2389      C2390   1.401       .  A
C2390      H2399   1.084       .  S
C2390      C2391   1.400       .  A
C2391      C2392   1.411       .  A
C2391      S2395   1.802       .  S
C2393      H2400   1.084       .  S
C2393      C2394   1.399       .  A
C2394      S2396   1.805       .  S
S2395      H2398   1.405   1_655  S
S2396      H2397   1.405       .  S
C2401      C2402   1.402       .  A
C2402      H2411   1.084       .  S
C2402      C2403   1.400       .  A
C2403      S2407   1.804       .  S
C2404      C2405   1.401       .  A
C2405      H2412   1.084       .  S
C2405      C2406   1.398       .  A
C2406      S2408   1.804       .  S
S2407      H2410   1.407       .  S
C2413      C2414   1.404       .  A
C2414      H2423   1.083       .  S
C2414      C2415   1.398       .  A
C2415      C2416   1.414       .  A
C2415      S2419   1.802       .  S
C2417      H2424   1.083       .  S
C2417      C2418   1.400       .  A
C2418      S2420   1.803       .  S
S2419      H2422   1.407       .  S
S2420      H2421   1.407       .  S
