geometry optimzed in LAMMPS
_audit_creation_date              2020-12-01 
_audit_creation_method            'lammps2cif' 
_symmetry_space_group_name_H-M    'P1' 
_symmetry_Int_Tables_number       1 
_symmetry_cell_setting            triclinic 
loop_ 
_symmetry_equiv_pos_as_xyz 
  x,y,z 
_cell_length_a                    75.91244049 
_cell_length_b                    75.9701627395784 
_cell_length_c                    75.93518437854155 
_cell_angle_alpha                 90.00100150875136 
_cell_angle_beta                  90.08175211247108 
_cell_angle_gamma                 89.98157153836809 
loop_ 
_atom_site_label 
_atom_site_type_symbol 
_atom_site_fract_x 
_atom_site_fract_y 
_atom_site_fract_z 
_atom_site_charge 
O1          O  0.60815638  0.71807042  0.89239256    -0.57500
C2          C  0.56017711  0.74050048  0.89660340     0.75100
O3          O  0.60487228  0.76480576  0.92639096    -0.58700
C4          C  0.62411294  0.72134777  0.89594381     0.75100
C5          C  0.60262930  0.77623271  0.87443223     0.77500
Cd6        Cd  0.59719836  0.74799493  0.89949639     1.37500
O7          O  0.57115841  0.73291856  0.88659909    -0.57500
O8          O  0.60007016  0.76048504  0.86971718    -0.56300
C9          C  0.59886874  0.75326250  0.93684607     0.77400
O10         O  0.60271484  0.77900292  0.89086450    -0.58700
O11         O  0.56633030  0.75170259  0.90723817    -0.57200
O12         O  0.62761545  0.73704081  0.90022886    -0.57200
O13         O  0.59260547  0.73947482  0.92990856    -0.56300
O14         O  0.56842689  0.73132585  0.11374342    -0.57500
C15         C  0.61977238  0.72080594  0.11526050     0.75100
O16         O  0.59894283  0.76583727  0.07940943    -0.58700
C17         C  0.55785339  0.74325366  0.10881200     0.75100
C18         C  0.60021997  0.77725010  0.13127388     0.77500
Cd19       Cd  0.59516471  0.74855284  0.10681328     1.37500
O20         O  0.60330098  0.71852158  0.11629888    -0.57500
O21         O  0.59007275  0.76445909  0.13453808    -0.56300
C22         C  0.59753783  0.75285012  0.06908274     0.77400
O23         O  0.60904218  0.77631013  0.11716130    -0.58700
O24         O  0.62486714  0.73624275  0.11160668    -0.57200
O25         O  0.56459458  0.75745379  0.10336553    -0.57200
O26         O  0.59595343  0.73793939  0.07625520    -0.56300
O27         O  0.37832938  0.78065337  0.88541593    -0.57500
C28         C  0.38557374  0.75699144  0.93185364     0.75100
O29         O  0.38238414  0.72147444  0.88870161    -0.58700
C30         C  0.38510181  0.78080508  0.87019441     0.75100
C31         C  0.42886010  0.74638430  0.89222518     0.77500
Cd32       Cd  0.39121204  0.75217459  0.89452075     1.37500
O33         O  0.38778090  0.77005341  0.92176758    -0.57500
O34         O  0.42223635  0.75974550  0.89958226    -0.56300
C35         C  0.36616700  0.72454090  0.88636678     0.77400
O36         O  0.41804407  0.73532562  0.88599906    -0.58700
O37         O  0.38608459  0.74202055  0.92466858    -0.57200
O38         O  0.39389513  0.76730566  0.86591663    -0.57200
O39         O  0.36165958  0.74058833  0.88648395    -0.56300
O40         O  0.38205047  0.77592845  0.11077705    -0.57500
C41         C  0.38706841  0.75335617  0.06354398     0.75100
O42         O  0.41521435  0.72859503  0.10830513    -0.58700
C43         C  0.38313125  0.77290642  0.12709739     0.75100
C44         C  0.36257283  0.71843833  0.10320777     0.77500
Cd45       Cd  0.38851882  0.74600043  0.10066638     1.37500
O46         O  0.37842207  0.76256250  0.07442568    -0.57500
O47         O  0.35861632  0.73399683  0.09881554    -0.56300
C48         C  0.42576397  0.74100307  0.10467848     0.77400
O49         O  0.37847748  0.71577264  0.10748875    -0.58700
O50         O  0.39588663  0.74072661  0.06986038    -0.57200
O51         O  0.38577242  0.75698782  0.13130695    -0.57200
O52         O  0.41893303  0.75525216  0.09945236    -0.56300
O53         O  0.77668380  0.38796715  0.89168919    -0.57500
C54         C  0.75480526  0.39624649  0.94003710     0.75100
O55         O  0.72931881  0.42535492  0.89672475    -0.58700
C56         C  0.77444581  0.39337935  0.87607787     0.75100
C57         C  0.72187795  0.37263372  0.89584611     0.77500
Cd58       Cd  0.74808833  0.39915701  0.90269265     1.37500
O59         O  0.76732432  0.39678141  0.92905739    -0.57500
O60         O  0.73698327  0.36887847  0.90184312    -0.56300
C61         C  0.74142091  0.43637455  0.89989641     0.77400
O62         O  0.71892806  0.38873053  0.89269623    -0.58700
O63         O  0.73940968  0.39708445  0.93371882    -0.57200
O64         O  0.75976885  0.40049730  0.87274567    -0.57200
O65         O  0.75617396  0.43004761  0.90432776    -0.56300
O66         O  0.72576110  0.38545459  0.11653414    -0.57500
C67         C  0.74958632  0.43239182  0.11689833     0.75100
O68         O  0.78665712  0.38819437  0.11948149    -0.58700
C69         C  0.72834568  0.36933667  0.11325542     0.75100
C70         C  0.76244094  0.39723688  0.07223639     0.77500
Cd71       Cd  0.75620408  0.39555592  0.10996786     1.37500
O72         O  0.73758619  0.42092723  0.11858739    -0.57500
O73         O  0.75180944  0.40717911  0.08026574    -0.56300
C74         C  0.78325777  0.38768264  0.13579477     0.77400
O75         O  0.77047495  0.38615359  0.08176017    -0.58700
O76         O  0.76473734  0.42664673  0.11296217    -0.57200
O77         O  0.74386989  0.36523257  0.10881941    -0.57200
O78         O  0.76742091  0.39062785  0.14000368    -0.56300
O79         O  0.73641935  0.57839068  0.88679885    -0.57500
C80         C  0.71961901  0.62925258  0.89552362     0.75100
O81         O  0.76763454  0.60942838  0.92775305    -0.58700
C82         C  0.73855851  0.56836089  0.89993262     0.75100
C83         C  0.77651884  0.61174460  0.87694911     0.77500
Cd84       Cd  0.74812738  0.60519530  0.90174666     1.37500
O85         O  0.71766087  0.61281337  0.89347238    -0.57500
O86         O  0.76127998  0.61806424  0.87478170    -0.56300
C87         C  0.75518361  0.61283765  0.93830655     0.77400
O88         O  0.77870538  0.60263117  0.89071476    -0.58700
O89         O  0.73494728  0.63443212  0.89962816    -0.57200
O90         O  0.74499625  0.57537619  0.91354969    -0.57200
O91         O  0.73985812  0.61317007  0.93181871    -0.56300
O92         O  0.71063858  0.61135458  0.11216789    -0.57500
C93         C  0.73914359  0.56429080  0.11189878     0.75100
O94         O  0.75835002  0.61219358  0.08073582    -0.58700
C95         C  0.71393895  0.62770074  0.11216844     0.75100
C96         C  0.76886901  0.60803509  0.13306720     0.77500
Cd97       Cd  0.74177766  0.60197699  0.10689541     1.37500
O98         O  0.72713125  0.57446047  0.11746592    -0.57500
O99         O  0.75353010  0.60297076  0.13710349    -0.56300
C100        C  0.74845919  0.60493609  0.06942618     0.77400
O101        O  0.77147053  0.61131732  0.11693194    -0.58700
O102        O  0.75170189  0.57159211  0.10377435    -0.57200
O103        O  0.72994211  0.63188320  0.11039059    -0.57200
O104        O  0.73531584  0.59667488  0.07545237    -0.56300
O105        O  0.60226751  0.88798778  0.22099320    -0.57500
C106        C  0.60152579  0.93329875  0.24727157     0.75100
O107        O  0.57100006  0.88157132  0.26596810    -0.58700
C108        C  0.60364679  0.87160307  0.22367991     0.75100
C109        C  0.62401220  0.89011023  0.27837029     0.77500
Cd110      Cd  0.59712151  0.89592323  0.25208435     1.37500
O111        O  0.59633092  0.92665825  0.26163907    -0.57500
O112        O  0.62762891  0.89307013  0.26239028    -0.56300
C113        C  0.55968750  0.89110059  0.25826147     0.77400
O114        O  0.60780089  0.88947407  0.28222532    -0.58700
O115        O  0.60519533  0.92255436  0.23505251    -0.57200
O116        O  0.60203390  0.86660120  0.23946695    -0.57200
O117        O  0.56567888  0.90265869  0.24791894    -0.56300
O118        O  0.57434616  0.11763010  0.26199233    -0.57500
C119        C  0.62681963  0.10752676  0.28356671     0.75100
O120        O  0.60122114  0.07506128  0.23569216    -0.58700
C121        C  0.56469489  0.10439094  0.26487522     0.75100
C122        C  0.60927390  0.12504438  0.22742712     0.77500
Cd123      Cd  0.60175870  0.10073868  0.25576858     1.37500
O124        O  0.61054084  0.10572790  0.28675933    -0.57500
O125        O  0.60973287  0.12952068  0.24344874    -0.56300
C126        C  0.60825311  0.06447834  0.24650541     0.77400
O127        O  0.60531675  0.10914306  0.22437245    -0.58700
O128        O  0.63137635  0.10625329  0.26760114    -0.57200
O129        O  0.57231864  0.08966132  0.26399473    -0.57200
O130        O  0.61260076  0.07079520  0.26128667    -0.56300
O131        O  0.38589914  0.11143111  0.22457476    -0.57500
C132        C  0.39041862  0.06357474  0.24912887     0.75100
O133        O  0.42132336  0.11013731  0.27186876    -0.58700
C134        C  0.39072768  0.12722521  0.22682179     0.75100
C135        C  0.36795168  0.10860201  0.27990961     0.77500
Cd136      Cd  0.39506856  0.10117480  0.25429400     1.37500
O137        O  0.39083356  0.07422859  0.23633559    -0.57500
O138        O  0.36444654  0.10614430  0.26380178    -0.56300
C139        C  0.43247518  0.10395060  0.26113751     0.77400
O140        O  0.38412549  0.10854278  0.28402515    -0.58700
O141        O  0.39200691  0.07043496  0.26423040    -0.57200
O142        O  0.39705055  0.13088154  0.24180115    -0.57200
O143        O  0.42622644  0.09646251  0.24763866    -0.56300
O144        O  0.38246916  0.92102512  0.23387982    -0.57500
C145        C  0.38452754  0.86779650  0.22035579     0.75100
O146        O  0.41749032  0.88286111  0.26562150    -0.58700
C147        C  0.39065164  0.93076533  0.24468869     0.75100
C148        C  0.36560453  0.88627233  0.27527269     0.77500
Cd149      Cd  0.39154923  0.89269116  0.24818552     1.37500
O150        O  0.38807615  0.88375054  0.21706767    -0.57500
O151        O  0.36112148  0.89050547  0.25976422    -0.56300
C152        C  0.42846637  0.88470890  0.25320967     0.77400
O153        O  0.38195885  0.88448636  0.27802626    -0.58700
O154        O  0.38356143  0.86359100  0.23643785    -0.57200
O155        O  0.39862349  0.92289419  0.25698636    -0.57200
O156        O  0.42230803  0.89023828  0.23876976    -0.56300
O157        O  0.38920775  0.22051331  0.89379735    -0.57500
C158        C  0.39476413  0.24722069  0.94132668     0.75100
O159        O  0.42348190  0.26654206  0.89391574    -0.58700
C160        C  0.38807898  0.22421125  0.87755902     0.75100
C161        C  0.37027379  0.27782130  0.89761602     0.77500
Cd162      Cd  0.39635129  0.25085557  0.90350318     1.37500
O163        O  0.38668608  0.23654093  0.93135226    -0.57500
O164        O  0.36636667  0.26274577  0.90350209    -0.56300
C165        C  0.43394082  0.25422317  0.89812283     0.77400
O166        O  0.38643877  0.28058573  0.89453853    -0.58700
O167        O  0.40298366  0.25958722  0.93382370    -0.57200
O168        O  0.39050142  0.24016321  0.87350342    -0.57200
O169        O  0.42694470  0.24057901  0.90461600    -0.56300
O170        O  0.39354061  0.22155164  0.11940674    -0.57500
C171        C  0.39650401  0.24815462  0.07370758     0.75100
O172        O  0.39359585  0.28284037  0.11610046    -0.58700
C173        C  0.39367485  0.22396882  0.13590125     0.75100
C174        C  0.43996338  0.25547933  0.11577435     0.77500
Cd175      Cd  0.40216489  0.25185634  0.11124827     1.37500
O176        O  0.39573074  0.23499477  0.08391087    -0.57500
O177        O  0.43296812  0.24373342  0.10629358    -0.56300
C178        C  0.37719903  0.27989501  0.11693334     0.77400
O179        O  0.42941259  0.26601323  0.12321098    -0.58700
O180        O  0.40013013  0.26275045  0.08081515    -0.57200
O181        O  0.39735930  0.23940216  0.14098797    -0.57200
O182        O  0.37249945  0.26391894  0.11624278    -0.56300
O183        O  0.60946594  0.23338098  0.92795964    -0.57500
C184        C  0.61305602  0.22357390  0.87594606     0.75100
O185        O  0.57689269  0.26834124  0.89590731    -0.58700
C186        C  0.60816399  0.24615274  0.93855831     0.75100
C187        C  0.62985401  0.27757560  0.89299337     0.77500
Cd188      Cd  0.60420136  0.25082357  0.90091245     1.37500
O189        O  0.61374770  0.22102712  0.89241065    -0.57500
O190        O  0.63422163  0.26266717  0.89900568    -0.56300
C191        C  0.56654394  0.25530130  0.89633317     0.77400
O192        O  0.61356719  0.28001387  0.89030096    -0.58700
O193        O  0.60864961  0.23888644  0.87106554    -0.57200
O194        O  0.60477223  0.26098755  0.93182858    -0.57200
O195        O  0.57366865  0.24042164  0.89846605    -0.56300
O196        O  0.61490099  0.21599699  0.11748730    -0.57500
C197        C  0.60828083  0.24068167  0.07074519     0.75100
O198        O  0.58263069  0.26571251  0.11290651    -0.58700
C199        C  0.61535236  0.21912145  0.13386463     0.75100
C200        C  0.63541011  0.27412627  0.11273074     0.77500
Cd201      Cd  0.60889198  0.24683893  0.10846215     1.37500
O202        O  0.61871730  0.23229735  0.08070755    -0.57500
O203        O  0.63886377  0.25909532  0.10649184    -0.56300
C204        C  0.57215253  0.25305898  0.11580854     0.77400
O205        O  0.61975588  0.27638654  0.11800265    -0.58700
O206        O  0.59823665  0.25160539  0.07823751    -0.57200
O207        O  0.61375468  0.23510804  0.13830330    -0.57200
O208        O  0.57870779  0.23776407  0.11537584    -0.56300
O209        O  0.11667031  0.37917816  0.22640312    -0.57500
C210        C  0.06984615  0.38786082  0.25315719     0.75100
O211        O  0.11703392  0.38113534  0.28538074    -0.58700
C212        C  0.13262137  0.38386648  0.22788653     0.75100
C213        C  0.11222944  0.42810418  0.25936569     0.77500
Cd214      Cd  0.10765090  0.39067288  0.25564980     1.37500
O215        O  0.07944010  0.38542307  0.23973929    -0.57500
O216        O  0.10640572  0.42113698  0.24540621    -0.56300
C217        C  0.11591871  0.36479299  0.28228678     0.77400
O218        O  0.11579525  0.41775729  0.27195765    -0.58700
O219        O  0.07776879  0.39177027  0.26725460    -0.57200
O220        O  0.13693459  0.39081514  0.24241161    -0.57200
O221        O  0.11134989  0.36052310  0.26683859    -0.56300
O222        O  0.89196822  0.38956145  0.22849632    -0.57500
C223        C  0.93769507  0.39606846  0.25512025     0.75100
O224        O  0.88398435  0.42321284  0.27242721    -0.58700
C225        C  0.87553627  0.39107880  0.23093803     0.75100
C226        C  0.89437456  0.37089979  0.28547747     0.77500
Cd227      Cd  0.90004412  0.39790948  0.25925383     1.37500
O228        O  0.93051134  0.40075123  0.26940327    -0.57500
O229        O  0.89796123  0.36718750  0.26965153    -0.56300
C230        C  0.89372970  0.43495576  0.26576731     0.77400
O231        O  0.89343026  0.38711241  0.28914727    -0.58700
O232        O  0.92742298  0.39201168  0.24257537    -0.57200
O233        O  0.87075222  0.39561839  0.24619898    -0.57200
O234        O  0.90630637  0.42961576  0.25626566    -0.56300
O235        O  0.88848004  0.61203699  0.28079047    -0.57500
C236        C  0.88543833  0.56514413  0.25544043     0.75100
O237        O  0.88296013  0.60973644  0.21967427    -0.58700
C238        C  0.88831857  0.62834069  0.27742667     0.75100
C239        C  0.92970343  0.60405040  0.24517398     0.77500
Cd240      Cd  0.89215032  0.60222287  0.25005171     1.37500
O241        O  0.88018411  0.57663696  0.26630594    -0.57500
O242        O  0.92265795  0.59819526  0.25904920    -0.56300
C243        C  0.86657984  0.60940036  0.22277467     0.77400
O244        O  0.91929959  0.60937935  0.23326146    -0.58700
O245        O  0.89377986  0.57082324  0.24220987    -0.57200
O246        O  0.88919537  0.63256454  0.26132557    -0.57200
O247        O  0.86219530  0.60663201  0.23861286    -0.56300
O248        O  0.10623502  0.60650663  0.28082190    -0.57500
C249        C  0.10448384  0.55948246  0.25725115     0.75100
O250        O  0.07254527  0.60521113  0.23418818    -0.58700
C251        C  0.10325198  0.62262586  0.27791026     0.75100
C252        C  0.12323586  0.60222752  0.22147037     0.77500
Cd253      Cd  0.09923279  0.59639243  0.25045506     1.37500
O254        O  0.11467889  0.57091150  0.26383261    -0.57500
O255        O  0.12845357  0.60052963  0.23718634    -0.56300
C256        C  0.06187774  0.59871264  0.24524062     0.77400
O257        O  0.10673958  0.60201541  0.21913712    -0.58700
O258        O  0.09229754  0.56512099  0.24740604    -0.57200
O259        O  0.09868346  0.62652232  0.26237702    -0.57200
O260        O  0.06856498  0.59090168  0.25837190    -0.56300
O261        O  0.27580716  0.61449495  0.88536075    -0.57500
C262        C  0.25146407  0.56611941  0.89122094     0.75100
O263        O  0.22535761  0.60569551  0.91847682    -0.58700
C264        C  0.27210155  0.63071533  0.88681721     0.75100
C265        C  0.22066320  0.61073488  0.86488327     0.77500
Cd266      Cd  0.24566430  0.60365816  0.89276189     1.37500
O267        O  0.26424228  0.57676953  0.88992831    -0.57500
O268        O  0.23501053  0.60273323  0.86197155    -0.56300
C269        C  0.23755042  0.60716608  0.92975847     0.77400
O270        O  0.21800124  0.61543744  0.88065049    -0.58700
O271        O  0.23638607  0.57288568  0.89307839    -0.57200
O272        O  0.25618313  0.63416800  0.89026691    -0.57200
O273        O  0.25311020  0.60707211  0.92389115    -0.56300
O274        O  0.26986644  0.60963426  0.10730205    -0.57500
C275        C  0.24677180  0.56354158  0.10394085     0.75100
O276        O  0.20892881  0.60415409  0.10769666    -0.58700
C277        C  0.26767103  0.62585005  0.10424746     0.75100
C278        C  0.23477425  0.60324408  0.06153027     0.77500
Cd279      Cd  0.23994537  0.60044186  0.09902126     1.37500
O280        O  0.25859010  0.57494077  0.10676883    -0.57500
O281        O  0.24644843  0.59348182  0.06827721    -0.56300
C282        C  0.21191957  0.60600300  0.12397236     0.77400
O283        O  0.22518131  0.61168776  0.07220814    -0.58700
O284        O  0.23181434  0.56932236  0.09940087    -0.57200
O285        O  0.25229256  0.63052157  0.09978427    -0.57200
O286        O  0.22794236  0.60603789  0.12860975    -0.56300
O287        O  0.22382947  0.38159390  0.11848198    -0.57500
C288        C  0.24439539  0.38862700  0.06955372     0.75100
O289        O  0.26710126  0.42188069  0.11364118    -0.58700
C290        C  0.22567907  0.38824357  0.13366307     0.75100
C291        C  0.27991689  0.36961425  0.11229535     0.77500
Cd292      Cd  0.25144707  0.39403499  0.10638903     1.37500
O293        O  0.23193676  0.39077345  0.08039871    -0.57500
O294        O  0.26406029  0.36467893  0.11079539    -0.56300
C295        C  0.25529223  0.43173767  0.10716589     0.77400
O296        O  0.28256674  0.38608521  0.11208735    -0.58700
O297        O  0.25982463  0.38845267  0.07581249    -0.57200
O298        O  0.23987721  0.39649597  0.13642889    -0.57200
O299        O  0.24232632  0.42406438  0.10010353    -0.56300
O300        O  0.23497943  0.38542190  0.92741929    -0.57500
C301        C  0.22068914  0.39244705  0.87571859     0.75100
O302        O  0.26478668  0.42354092  0.88973854    -0.58700
C303        C  0.24677406  0.39083472  0.93793868     0.75100
C304        C  0.27594915  0.37079863  0.89235851     0.77500
Cd305      Cd  0.24937538  0.39675197  0.90043943     1.37500
O306        O  0.21805944  0.39201761  0.89216831    -0.57500
O307        O  0.26028749  0.36655201  0.89609631    -0.56300
C308        C  0.25470566  0.43423247  0.89761811     0.77400
O309        O  0.27921806  0.38713729  0.89186038    -0.58700
O310        O  0.23653354  0.39424297  0.87092034    -0.57200
O311        O  0.25946597  0.39905608  0.93100808    -0.57200
O312        O  0.24251450  0.42755459  0.90676133    -0.56300
O313        O  0.87862829  0.72122119  0.61322216    -0.57500
C314        C  0.88183150  0.74557526  0.56577211     0.75100
O315        O  0.87598909  0.78139809  0.61013051    -0.58700
C316        C  0.87813908  0.72484863  0.62948596     0.75100
C317        C  0.92354482  0.75591322  0.60818273     0.77500
Cd318      Cd  0.88599442  0.75118847  0.60317698     1.37500
O319        O  0.87947852  0.73318357  0.57664771    -0.57500
O320        O  0.91687358  0.74157930  0.60304146    -0.56300
C321        C  0.85968990  0.77807368  0.60883420     0.77400
O322        O  0.91286165  0.76842783  0.61084630    -0.58700
O323        O  0.88629524  0.76027240  0.57216068    -0.57200
O324        O  0.88095056  0.74075724  0.63355816    -0.57200
O325        O  0.85563496  0.76225258  0.60552314    -0.56300
O326        O  0.10271499  0.72380242  0.61016302    -0.57500
C327        C  0.09664838  0.74774148  0.56394337     0.75100
O328        O  0.06621267  0.76828342  0.61262755    -0.58700
C329        C  0.09899420  0.72579360  0.62626102     0.75100
C330        C  0.11982129  0.78043567  0.60652116     0.77500
Cd331      Cd  0.09314095  0.75360842  0.60102956     1.37500
O332        O  0.10084871  0.73598802  0.57500877    -0.57500
O333        O  0.12353234  0.76506216  0.60136888    -0.56300
C334        C  0.05552012  0.75917469  0.60361113     0.77400
O335        O  0.10367967  0.78347035  0.60935961    -0.58700
O336        O  0.09069409  0.76203944  0.57011878    -0.57200
O337        O  0.09284647  0.74063771  0.63059454    -0.57200
O338        O  0.06222434  0.74763228  0.59367904    -0.56300
O339        O  0.87848739  0.77920750  0.38770641    -0.57500
C340        C  0.92696016  0.75563722  0.39236096     0.75100
O341        O  0.87925183  0.73372162  0.42333582    -0.58700
C342        C  0.86301241  0.77676891  0.39341907     0.75100
C343        C  0.88441876  0.72379899  0.36982836     0.77500
Cd344      Cd  0.88972891  0.74994788  0.39704761     1.37500
O345        O  0.91625817  0.76842547  0.39144578    -0.57500
O346        O  0.88674740  0.73991292  0.36644765    -0.56300
C347        C  0.88790533  0.74291125  0.43425328     0.77400
O348        O  0.88342424  0.71985435  0.38600048    -0.58700
O349        O  0.92043401  0.74073723  0.39588106    -0.57200
O350        O  0.85985050  0.76183806  0.40002012    -0.57200
O351        O  0.89724850  0.75513424  0.42790936    -0.56300
O352        O  0.10643116  0.77667806  0.38768012    -0.57500
C353        C  0.05905430  0.75302557  0.39193750     0.75100
O354        O  0.10439947  0.71611871  0.38593895    -0.58700
C355        C  0.12276849  0.77332367  0.38805883     0.75100
C356        C  0.10108912  0.74220627  0.43214482     0.77500
Cd357      Cd  0.09667139  0.74660471  0.39476276     1.37500
O358        O  0.07005510  0.76203263  0.38327157    -0.57500
O359        O  0.09969327  0.75717040  0.42497848    -0.56300
C360        C  0.10330492  0.71883460  0.36952759     0.77400
O361        O  0.10127246  0.72907132  0.42187661    -0.58700
O362        O  0.06548261  0.74132465  0.40186978    -0.57200
O363        O  0.12702526  0.75752011  0.39121660    -0.57200
O364        O  0.09939683  0.73434086  0.36493434    -0.56300
O365        O  0.11006282  0.39164087  0.72418288    -0.57500
C366        C  0.10742953  0.43850628  0.75010736     0.75100
O367        O  0.07461992  0.39092110  0.76988706    -0.58700
C368        C  0.10594793  0.37564413  0.72641168     0.75100
C369        C  0.12779582  0.39471181  0.78075941     0.77500
Cd370      Cd  0.10142531  0.40120368  0.75425225     1.37500
O371        O  0.10734522  0.42821868  0.73698681    -0.57500
O372        O  0.13169227  0.39703994  0.76473519    -0.56300
C373        C  0.06382318  0.39901003  0.76008092     0.77400
O374        O  0.11152949  0.39407093  0.78438854    -0.58700
O375        O  0.10463538  0.43138684  0.76490194    -0.57200
O376        O  0.10071393  0.37149298  0.74165157    -0.57200
O377        O  0.07051714  0.40841119  0.74808881    -0.56300
O378        O  0.88519264  0.38742924  0.72664525    -0.57500
C379        C  0.88994499  0.43505305  0.74935065     0.75100
O380        O  0.88454043  0.38744381  0.78545645    -0.58700
C381        C  0.88810412  0.37131165  0.72974177     0.75100
C382        C  0.93137059  0.39635902  0.76105215     0.77500
Cd383      Cd  0.89382008  0.39792678  0.75609384     1.37500
O384        O  0.88498103  0.42373271  0.73817522    -0.57500
O385        O  0.92428346  0.39720668  0.74600037    -0.56300
C386        C  0.86832364  0.39058745  0.78324810     0.77400
O387        O  0.92099908  0.39573568  0.77407686    -0.58700
O388        O  0.89623655  0.42912773  0.76358491    -0.57200
O389        O  0.89329568  0.36755284  0.74513428    -0.57200
O390        O  0.86393706  0.39640446  0.76825922    -0.56300
O391        O  0.87909734  0.61464507  0.71943126    -0.57500
C392        C  0.88702462  0.56688975  0.74345570     0.75100
O393        O  0.91658214  0.61181023  0.76482154    -0.58700
C394        C  0.88057286  0.63088662  0.72286190     0.75100
C395        C  0.86486751  0.61032770  0.77805780     0.77500
Cd396      Cd  0.88899278  0.60449126  0.74898673     1.37500
O397        O  0.87785159  0.57735420  0.73424768    -0.57500
O398        O  0.85999125  0.60392853  0.76346721    -0.56300
C399        C  0.92655290  0.60948864  0.75165628     0.77400
O400        O  0.88107281  0.61400958  0.77933440    -0.58700
O401        O  0.89698742  0.57386741  0.75483672    -0.57200
O402        O  0.88549044  0.63471805  0.73830466    -0.57200
O403        O  0.91912469  0.60484084  0.73746916    -0.56300
O404        O  0.10756598  0.58076874  0.73431726    -0.57500
C405        C  0.10268493  0.63317476  0.72081028     0.75100
O406        O  0.06952805  0.61590473  0.76525464    -0.58700
C407        C  0.09953920  0.57039779  0.74459050     0.75100
C408        C  0.12370553  0.61527032  0.77428428     0.77500
Cd409      Cd  0.09656994  0.60806721  0.74848946     1.37500
O410        O  0.10315865  0.61674491  0.71796378    -0.57500
O411        O  0.12707023  0.61154868  0.75843178    -0.56300
C412        C  0.05907713  0.61277130  0.75258792     0.77400
O413        O  0.10753368  0.61592756  0.77838200    -0.58700
O414        O  0.09962207  0.63783253  0.73650789    -0.57200
O415        O  0.09033812  0.57746053  0.75650973    -0.57200
O416        O  0.06603867  0.60802398  0.73822983    -0.56300
O417        O  0.23505279  0.07207549  0.39597508    -0.57500
C418        C  0.22403667  0.12395606  0.39622671     0.75100
O419        O  0.26841964  0.10985945  0.42955916    -0.58700
C420        C  0.24749055  0.06142849  0.39915341     0.75100
C421        C  0.27823569  0.10620613  0.37653747     0.77500
Cd422      Cd  0.25198471  0.09916001  0.40304927     1.37500
O423        O  0.22143949  0.10750917  0.39567483    -0.57500
O424        O  0.26215446  0.10409553  0.37267707    -0.56300
C425        C  0.25751088  0.10364544  0.44051260     0.77400
O426        O  0.28210803  0.10559606  0.39274427    -0.58700
O427        O  0.23955790  0.12887484  0.39979057    -0.57200
O428        O  0.26195507  0.06831863  0.40368824    -0.57200
O429        O  0.24422181  0.09598839  0.43406294    -0.56300
O430        O  0.21579661  0.88188931  0.38515419    -0.57500
C431        C  0.24076739  0.92960630  0.39135757     0.75100
O432        O  0.26128802  0.88238715  0.42227909    -0.58700
C433        C  0.21765093  0.86611327  0.39020246     0.75100
C434        C  0.27206511  0.88587289  0.36887994     0.77500
Cd435      Cd  0.24529405  0.89207812  0.39535362     1.37500
O436        O  0.22753588  0.91943062  0.39157779    -0.57500
O437        O  0.25627714  0.88957847  0.36500412    -0.56300
C438        C  0.25201150  0.89141187  0.43280024     0.77400
O439        O  0.27539288  0.88389839  0.38511334    -0.58700
O440        O  0.25571753  0.92233171  0.39238708    -0.57200
O441        O  0.23223551  0.86242578  0.39737745    -0.57200
O442        O  0.23967073  0.90025204  0.42597705    -0.56300
O443        O  0.26088889  0.89099725  0.57524216    -0.57500
C444        C  0.27072507  0.89221324  0.62655498     0.75100
O445        O  0.22910354  0.92587573  0.61350387    -0.58700
C446        C  0.24817882  0.89058611  0.56441035     0.75100
C447        C  0.21530299  0.87290768  0.60815937     0.77500
Cd448      Cd  0.24266031  0.89844875  0.60119575     1.37500
O449        O  0.27387353  0.89380278  0.61027718    -0.57500
O450        O  0.23106904  0.86843658  0.60515343    -0.56300
C451        C  0.23585756  0.93626149  0.60239010     0.77400
O452        O  0.21222252  0.88930052  0.60826284    -0.58700
O453        O  0.25475117  0.89358584  0.63101865    -0.57200
O454        O  0.23306747  0.89367253  0.57069391    -0.57200
O455        O  0.24552893  0.92910017  0.59091798    -0.56300
O456        O  0.21951151  0.11729541  0.61895049    -0.57500
C457        C  0.24226860  0.06824307  0.61195982     0.75100
O458        O  0.26677477  0.11127284  0.58297809    -0.58700
C459        C  0.22206989  0.13273287  0.61317530     0.75100
C460        C  0.27394658  0.11390234  0.63623056     0.77500
Cd461      Cd  0.24830660  0.10577551  0.60915121     1.37500
O462        O  0.23008538  0.07918910  0.61509081    -0.57500
O463        O  0.25835699  0.10932745  0.63991080    -0.56300
C464        C  0.25442909  0.10924459  0.57192046     0.77400
O465        O  0.27765410  0.11476447  0.62001480    -0.58700
O466        O  0.25698719  0.07466531  0.60760267    -0.57200
O467        O  0.23692724  0.13573538  0.60630565    -0.57200
O468        O  0.23937780  0.10572795  0.57811939    -0.56300
O469        O  0.11142239  0.21198158  0.39316653    -0.57500
C470        C  0.06493162  0.23728549  0.39839497     0.75100
O471        O  0.10539077  0.26201708  0.42577009    -0.58700
C472        C  0.12778025  0.21525410  0.39357716     0.75100
C473        C  0.10996093  0.26940759  0.37330571     0.77500
Cd474      Cd  0.10246223  0.24286424  0.39946666     1.37500
O475        O  0.07518029  0.22745713  0.38962405    -0.57500
O476        O  0.09926484  0.25696568  0.37046139    -0.56300
C477        C  0.10705455  0.24944007  0.43660380     0.77400
O478        O  0.11728470  0.26961481  0.38827345    -0.58700
O479        O  0.07207396  0.24959479  0.40702719    -0.57200
O480        O  0.13207138  0.23115749  0.39591652    -0.57200
O481        O  0.10657567  0.23409210  0.43018851    -0.56300
O482        O  0.88398182  0.22090114  0.39753620    -0.57500
C483        C  0.93312011  0.24382238  0.39988277     0.75100
O484        O  0.89164921  0.28086053  0.39574944    -0.58700
C485        C  0.86790931  0.22528125  0.39861927     0.75100
C486        C  0.89301083  0.25413113  0.44286748     0.77500
Cd487      Cd  0.89594970  0.25007042  0.40519852     1.37500
O488        O  0.92188152  0.23218574  0.39580610    -0.57500
O489        O  0.89741874  0.23978785  0.43567152    -0.56300
C490        C  0.89075287  0.27744266  0.37945042     0.77400
O491        O  0.88960780  0.26683246  0.43260717    -0.58700
O492        O  0.92711643  0.25772593  0.40673087    -0.57200
O493        O  0.86483522  0.24120141  0.40247452    -0.57200
O494        O  0.89173130  0.26138757  0.37514406    -0.56300
O495        O  0.88749539  0.27694936  0.62220087    -0.57500
C496        C  0.89489512  0.25189979  0.57538960     0.75100
O497        O  0.92559211  0.23261304  0.62388760    -0.58700
C498        C  0.89379098  0.27625911  0.63761478     0.75100
C499        C  0.87241767  0.22130074  0.61995662     0.77500
Cd500      Cd  0.89871883  0.24774693  0.61291030     1.37500
O501        O  0.89265388  0.26477677  0.58576046    -0.57500
O502        O  0.86858215  0.23660939  0.61468350    -0.56300
C503        C  0.93593897  0.24116833  0.61399373     0.77400
O504        O  0.88856592  0.21831983  0.62283307    -0.58700
O505        O  0.89883635  0.23731674  0.58243315    -0.57200
O506        O  0.90227812  0.26246505  0.64145671    -0.57200
O507        O  0.92903712  0.25270619  0.60417691    -0.56300
O508        O  0.11455227  0.22635346  0.61933420    -0.57500
C509        C  0.06724255  0.24827368  0.61205220     0.75100
O510        O  0.10989159  0.28549598  0.61520228    -0.58700
C511        C  0.13038960  0.22795308  0.61444008     0.75100
C512        C  0.10644243  0.25680520  0.56898128     0.77500
Cd513      Cd  0.10427081  0.25442305  0.60699459     1.37500
O514        O  0.07839323  0.23607462  0.61420633    -0.57500
O515        O  0.10020068  0.24357035  0.57690034    -0.56300
C516        C  0.10977296  0.28292708  0.63167596     0.77400
O517        O  0.11180000  0.26924035  0.57872552    -0.58700
O518        O  0.07324445  0.26304819  0.60733231    -0.57200
O519        O  0.13438428  0.24231754  0.60698014    -0.57200
O520        O  0.10823766  0.26710097  0.63661432    -0.56300
O521        O  0.70830903  0.88895956  0.61352415    -0.57500
C522        C  0.73758743  0.89560812  0.56734816     0.75100
O523        O  0.75597695  0.92386665  0.61459638    -0.58700
C524        C  0.71082198  0.89042921  0.62996430     0.75100
C525        C  0.76401311  0.86989200  0.61201415     0.77500
Cd526      Cd  0.73885139  0.89759453  0.60535926     1.37500
O527        O  0.72413816  0.89202675  0.57655356    -0.57500
O528        O  0.74852672  0.86698116  0.60663486    -0.56300
C529        C  0.74381379  0.93479571  0.61122745     0.77400
O530        O  0.76766890  0.88580929  0.61545064    -0.58700
O531        O  0.75112672  0.90044762  0.57574120    -0.57200
O532        O  0.72619476  0.89478378  0.63472801    -0.57200
O533        O  0.72970367  0.92844980  0.60505422    -0.56300
O534        O  0.71905643  0.11283249  0.62157440    -0.57500
C535        C  0.74220758  0.10888284  0.57406603     0.75100
O536        O  0.78028094  0.11256261  0.61568120    -0.58700
C537        C  0.72256568  0.11161119  0.63783455     0.75100
C538        C  0.75243943  0.06700924  0.61337712     0.77500
Cd539      Cd  0.74891608  0.10480875  0.61114272     1.37500
O540        O  0.73218960  0.11606215  0.58530969    -0.57500
O541        O  0.74075037  0.07459049  0.60424671    -0.56300
C542        C  0.77769530  0.12898997  0.61665131     0.77400
O543        O  0.76258167  0.07704348  0.62201328    -0.58700
O544        O  0.75548606  0.10078984  0.58003426    -0.57200
O545        O  0.73818551  0.10724206  0.64164081    -0.57200
O546        O  0.76194250  0.13410609  0.61492208    -0.56300
O547        O  0.71593263  0.11302126  0.39528704    -0.57500
C548        C  0.74115861  0.11051833  0.44256002     0.75100
O549        O  0.76377281  0.08044456  0.39515783    -0.58700
C550        C  0.71920419  0.11129037  0.37904734     0.75100
C551        C  0.77172472  0.13401805  0.39837640     0.77500
Cd552      Cd  0.74646448  0.10641348  0.40519022     1.37500
O553        O  0.72850258  0.11179010  0.43174832    -0.57500
O554        O  0.75619934  0.13728382  0.40347727    -0.56300
C555        C  0.75393331  0.06910901  0.40238465     0.77400
O556        O  0.77555649  0.11794677  0.39617455    -0.58700
O557        O  0.75625030  0.10772715  0.43605779    -0.57200
O558        O  0.73497496  0.10765952  0.37516776    -0.57200
O559        O  0.74080117  0.07505330  0.41067908    -0.56300
O560        O  0.76608316  0.92685395  0.39186888    -0.57500
C561        C  0.77208441  0.87345772  0.39197590     0.75100
O562        O  0.73047879  0.89213418  0.42406291    -0.58700
C563        C  0.75373094  0.93806730  0.39190416     0.75100
C564        C  0.71878076  0.89444712  0.37141826     0.77500
Cd565      Cd  0.74640188  0.90107364  0.39694502     1.37500
O566        O  0.77474353  0.88892233  0.38633806    -0.57500
O567        O  0.73491119  0.89443376  0.36722067    -0.56300
C568        C  0.74154801  0.89881911  0.43460628     0.77400
O569        O  0.71538669  0.89741664  0.38746887    -0.58700
O570        O  0.75729021  0.87072375  0.39911572    -0.57200
O571        O  0.73834009  0.93210457  0.39403121    -0.57200
O572        O  0.75440890  0.90676434  0.42766427    -0.56300
O573        O  0.38081633  0.89324024  0.78278609    -0.57500
C574        C  0.38591931  0.93837809  0.75683046     0.75100
O575        O  0.41419050  0.89536449  0.73417750    -0.58700
C576        C  0.37874020  0.87689633  0.78031949     0.75100
C577        C  0.36236967  0.89413106  0.72308428     0.77500
Cd578      Cd  0.38711882  0.90066839  0.75166899     1.37500
O579        O  0.37552457  0.92827325  0.76501759    -0.57500
O580        O  0.35771578  0.90027012  0.73785094    -0.56300
C581        C  0.42448402  0.89437077  0.74726622     0.77400
O582        O  0.37859153  0.89064238  0.72156629    -0.58700
O583        O  0.39637060  0.93108642  0.74617073    -0.57200
O584        O  0.38029610  0.87158410  0.76458835    -0.57200
O585        O  0.41734590  0.89583876  0.76223803    -0.56300
O586        O  0.38612316  0.11501450  0.72333764    -0.57500
C587        C  0.43400644  0.10921710  0.74890687     0.75100
O588        O  0.38894976  0.11750097  0.78351162    -0.58700
C589        C  0.36995804  0.11607380  0.72734403     0.75100
C590        C  0.38908501  0.07037928  0.75641426     0.77500
Cd591      Cd  0.39623084  0.10757130  0.75328382     1.37500
O592        O  0.42378170  0.11600791  0.73758536    -0.57500
O593        O  0.39404447  0.07731540  0.74212598    -0.56300
C594        C  0.39168978  0.13370716  0.78065815     0.77400
O595        O  0.38758362  0.08062730  0.76949636    -0.58700
O596        O  0.42669302  0.10136637  0.76161131    -0.57200
O597        O  0.36610649  0.11369046  0.74337105    -0.57200
O598        O  0.39588201  0.13777820  0.76506562    -0.56300
O599        O  0.59481025  0.92047764  0.77249942    -0.57500
C600        C  0.59788803  0.86999912  0.78095445     0.75100
O601        O  0.56686233  0.88180864  0.73885743    -0.58700
C602        C  0.59934786  0.93132981  0.76070216     0.75100
C603        C  0.61676603  0.88733559  0.72305965     0.77500
Cd604      Cd  0.59363118  0.89474402  0.75231282     1.37500
O605        O  0.60861304  0.88259802  0.77885006    -0.57500
O606        O  0.62127794  0.88404033  0.73876933    -0.56300
C607        C  0.55668676  0.89390935  0.74416874     0.77400
O608        O  0.60134878  0.89323266  0.72085598    -0.58700
O609        O  0.58589196  0.86853730  0.76949166    -0.57200
O610        O  0.60213191  0.92502119  0.74556698    -0.57200
O611        O  0.56368250  0.90611932  0.75304433    -0.56300
O612        O  0.61380896  0.11392964  0.72988241    -0.57500
C613        C  0.56578523  0.10282497  0.74857260     0.75100
O614        O  0.60480069  0.07374936  0.77575351    -0.58700
C615        C  0.62953388  0.10882541  0.73208984     0.75100
C616        C  0.60760930  0.12590498  0.78633961     0.77500
Cd617      Cd  0.60253745  0.10100017  0.75777452     1.37500
O618        O  0.57718519  0.11104661  0.73957304    -0.57500
O619        O  0.59571813  0.12751380  0.77479848    -0.56300
C620        C  0.60420331  0.06338521  0.76268761     0.77400
O621        O  0.61735021  0.11250230  0.78475623    -0.58700
O622        O  0.57144571  0.09422259  0.76167190    -0.57200
O623        O  0.63265623  0.10049326  0.74615875    -0.57200
O624        O  0.60309303  0.07052011  0.74767251    -0.56300
C625        C  0.59154733  0.97818605  0.77684244    -0.11100
C626        C  0.60391332  0.98738682  0.76670405     0.15400
C627        C  0.61557526  0.97795302  0.75575748     0.02300
C628        C  0.61394324  0.95969249  0.75436662    -0.15500
C629        C  0.60117519  0.95043262  0.76399520    -0.10300
C630        C  0.58995838  0.95984904  0.77553240     0.09100
C631        C  0.60316479  0.00682849  0.76626250     0.10100
S632        S  0.63237816  0.98852637  0.74272626    -0.24600
H633        H  0.62269345  0.95264652  0.74556937     0.20300
S634        S  0.57246989  0.94954799  0.78780254    -0.30300
H635        H  0.58248823  0.98543358  0.78514617     0.10700
C636        C  0.59520836  0.01566031  0.75202389     0.03900
C637        C  0.59573602  0.03406726  0.75134112    -0.12600
C638        C  0.60422819  0.04394427  0.76451114    -0.08300
C639        C  0.61220584  0.03497006  0.77880483     0.07300
C640        C  0.61128721  0.01655766  0.77968056    -0.13400
S641        S  0.58426802  0.00347179  0.73473938    -0.30300
H642        H  0.58938111  0.04081571  0.74049700     0.11600
S643        S  0.62471683  0.04601504  0.79567136    -0.27400
H644        H  0.61760457  0.00970465  0.79049902     0.08800
H645        H  0.56652063  0.93922579  0.77360486     0.27200
H646        H  0.58125230  0.01785659  0.72346435     0.22000
H647        H  0.63330909  0.05743032  0.78388476     0.27300
H648        H  0.63510824  0.00285931  0.75410095     0.16200
C649        C  0.51733666  0.09108865  0.74652462    -0.11100
C650        C  0.50982694  0.10738834  0.74223613     0.15400
C651        C  0.52094735  0.12176760  0.73824072     0.02300
C652        C  0.53927775  0.11960950  0.73919382    -0.15500
C653        C  0.54674952  0.10353470  0.74448705    -0.10300
C654        C  0.53559183  0.08894179  0.74748075     0.09100
C655        C  0.49043537  0.10902435  0.74340589     0.10100
S656        S  0.51270412  0.14332920  0.73257707    -0.24600
H657        H  0.54772119  0.13085451  0.73677963     0.20300
S658        S  0.54378863  0.06718654  0.75238242    -0.30300
H659        H  0.50885128  0.07996324  0.74934435     0.10700
C660        C  0.47954175  0.10975191  0.72838783     0.03900
C661        C  0.46114336  0.11037927  0.73049605    -0.12600
C662        C  0.45345235  0.11015737  0.74734737    -0.08300
C663        C  0.46457431  0.11000161  0.76234061     0.07300
C664        C  0.48281917  0.10918828  0.76018069    -0.13400
S665        S  0.48903428  0.10909096  0.70661568    -0.30300
H666        H  0.45270817  0.11045006  0.71898261     0.11600
S667        S  0.45648510  0.11136201  0.78461600    -0.27400
H668        H  0.49123315  0.10882316  0.77173262     0.08800
H669        H  0.55903320  0.06866564  0.74196182     0.27200
H670        H  0.47321466  0.11169257  0.69730254     0.22000
H671        H  0.44331124  0.12379486  0.78070293     0.27300
H672        H  0.49670077  0.14219717  0.74176129     0.16200
C673        C  0.40023395  0.98622169  0.75919871    -0.11100
C674        C  0.38397883  0.99476920  0.76100164     0.15400
C675        C  0.36844258  0.98465522  0.76239183     0.02300
C676        C  0.36948489  0.96625376  0.76154397    -0.15500
C677        C  0.38573017  0.95768357  0.75929879    -0.10300
C678        C  0.40131549  0.96786584  0.75851043     0.09100
C679        C  0.38376640  0.01423854  0.76057724     0.10100
S680        S  0.34691638  0.99442214  0.76478667    -0.24600
H681        H  0.35746324  0.95859409  0.76218812     0.20300
S682        S  0.42301702  0.95830971  0.75698340    -0.30300
H683        H  0.41219317  0.99395713  0.75826682     0.10700
C684        C  0.38963675  0.02426464  0.77504001     0.03900
C685        C  0.39063296  0.04264650  0.77354806    -0.12600
C686        C  0.38581997  0.05122531  0.75787658    -0.08300
C687        C  0.37902277  0.04113830  0.74373029     0.07300
C688        C  0.37832172  0.02278126  0.74515131    -0.13400
S689        S  0.39587212  0.01361026  0.79537435    -0.30300
H690        H  0.39569745  0.05032711  0.78444436     0.11600
S691        S  0.37053788  0.05084714  0.72377174    -0.27400
H692        H  0.37351752  0.01506604  0.73413975     0.08800
H693        H  0.41931272  0.94391414  0.76803476     0.27200
H694        H  0.39936751  0.02906565  0.80496278     0.22000
H695        H  0.36333878  0.06575957  0.73207821     0.27300
H696        H  0.35251177  0.00980231  0.77341844     0.16200
C697        C  0.47063279  0.88628067  0.72879727    -0.11100
C698        C  0.48106983  0.89165240  0.74304743     0.15400
C699        C  0.47288237  0.89720543  0.75875692     0.02300
C700        C  0.45450467  0.89760674  0.75974755    -0.15500
C701        C  0.44388928  0.89238576  0.74546768    -0.10300
C702        C  0.45220856  0.88634499  0.72988513     0.09100
C703        C  0.50044118  0.89185801  0.74108264     0.10100
S704        S  0.48511414  0.90425251  0.77790985    -0.24600
H705        H  0.44846711  0.90230330  0.77178534     0.20300
S706        S  0.44027609  0.87818195  0.71107078    -0.30300
H707        H  0.47692023  0.88191227  0.71675789     0.10700
C708        C  0.51038982  0.87619566  0.74129592     0.03900
C709        C  0.52884768  0.87716297  0.74121681    -0.12600
C710        C  0.53750520  0.89349721  0.74095398    -0.08300
C711        C  0.52742465  0.90909608  0.73949430     0.07300
C712        C  0.50904813  0.90811269  0.73980269    -0.13400
S713        S  0.49961312  0.85506851  0.74291370    -0.30300
H714        H  0.53654371  0.86521042  0.74230604     0.11600
S715        S  0.53716396  0.93060561  0.73700056    -0.27400
H716        H  0.50136199  0.92012530  0.73923844     0.08800
H717        H  0.42848694  0.86808376  0.72117430     0.27200
H718        H  0.51492639  0.84472079  0.74160841     0.22000
H719        H  0.55150986  0.92475108  0.72684248     0.27300
H720        H  0.49981617  0.89333958  0.77519774     0.16200
C721        C  0.74684263  0.98673133  0.38312509    -0.11100
C722        C  0.76093166  0.99408298  0.39251036     0.15400
C723        C  0.77373567  0.98289043  0.40004200     0.02300
C724        C  0.77159454  0.96458757  0.39890775    -0.15500
C725        C  0.75698447  0.95720163  0.39024795    -0.10300
C726        C  0.74487678  0.96848841  0.38168442     0.09100
C727        C  0.76089689  0.01333864  0.39544686     0.10100
S728        S  0.79264109  0.99116740  0.41182229    -0.24600
H729        H  0.78103969  0.95608304  0.40541622     0.20300
S730        S  0.72672872  0.96046639  0.36860713    -0.30300
H731        H  0.73713403  0.99530474  0.37710256     0.10700
C732        C  0.76654710  0.02520300  0.38238447     0.03900
C733        C  0.76475719  0.04339621  0.38522256    -0.12600
C734        C  0.75729572  0.04994264  0.40085609    -0.08300
C735        C  0.75234692  0.03791485  0.41421151     0.07300
C736        C  0.75401283  0.01981507  0.41126924    -0.13400
S737        S  0.77599772  0.01709848  0.36214136    -0.30300
H738        H  0.76871885  0.05253110  0.37503041     0.11600
S739        S  0.74425213  0.04473915  0.43545875    -0.27400
H740        H  0.74982334  0.01065971  0.42137704     0.08800
H741        H  0.73572598  0.94558801  0.36220809     0.27200
H742        H  0.77734670  0.03351684  0.35368923     0.22000
H743        H  0.75565297  0.05927181  0.43693317     0.27300
H744        H  0.79394817  0.00715523  0.40260621     0.16200
C745        C  0.69992985  0.11877981  0.68202241    -0.11100
C746        C  0.68244355  0.11469099  0.67771173     0.15400
C747        C  0.67800397  0.11116170  0.66000908     0.02300
C748        C  0.69121248  0.11118034  0.64715450    -0.15500
C749        C  0.70892247  0.11437877  0.65155669    -0.10300
C750        C  0.71313335  0.11889086  0.66917167     0.09100
C751        C  0.66929406  0.11363151  0.69205522     0.10100
S752        S  0.65587322  0.10596672  0.65306069    -0.24600
H753        H  0.68770234  0.10786637  0.63372227     0.20300
S754        S  0.73489110  0.12543536  0.67607000    -0.30300
H755        H  0.70330718  0.12186944  0.69554843     0.10700
C756        C  0.66920216  0.09924800  0.70375198     0.03900
C757        C  0.65638892  0.09839149  0.71697842    -0.12600
C758        C  0.64348480  0.11153979  0.71872880    -0.08300
C759        C  0.64390317  0.12619976  0.70722443     0.07300
C760        C  0.65668382  0.12699474  0.69392986    -0.13400
S761        S  0.68488905  0.08151872  0.70128252    -0.30300
H762        H  0.65608190  0.08710381  0.72567256     0.11600
S763        S  0.62900534  0.14456198  0.70918275    -0.27400
H764        H  0.65690841  0.13816603  0.68505784     0.08800
H765        H  0.73832115  0.13530446  0.66077332     0.27200
H766        H  0.67912302  0.07139204  0.71566864     0.22000
H767        H  0.62885803  0.14450731  0.72771320     0.27300
H768        H  0.65085805  0.09715566  0.66853393     0.16200
C769        C  0.74110283  0.09763143  0.52545331    -0.11100
C770        C  0.73526334  0.11350717  0.51813065     0.15400
C771        C  0.73030275  0.12747864  0.52936016     0.02300
C772        C  0.73215717  0.12549682  0.54764226    -0.15500
C773        C  0.73873612  0.10981124  0.55493471    -0.10300
C774        C  0.74267126  0.09553625  0.54364113     0.09100
C775        C  0.73563207  0.11502216  0.49872875     0.10100
S776        S  0.72213064  0.14826103  0.52125253    -0.24600
H777        H  0.72890549  0.13644384  0.55619160     0.20300
S778        S  0.74937347  0.07416022  0.55154173    -0.30300
H779        H  0.74463428  0.08679314  0.51686257     0.10700
C780        C  0.75026080  0.12240391  0.49006351     0.03900
C781        C  0.75162896  0.12091329  0.47169855    -0.12600
C782        C  0.73862673  0.11221018  0.46179959    -0.08300
C783        C  0.72383137  0.10506140  0.47056880     0.07300
C784        C  0.72244665  0.10666189  0.48887864    -0.13400
S785        S  0.76749982  0.13311995  0.50249997    -0.30300
H786        H  0.76293285  0.12644145  0.46500803     0.11600
S787        S  0.70704423  0.09250380  0.45942370    -0.27400
H788        H  0.71140888  0.10063456  0.49561517     0.08800
H789        H  0.73813097  0.07429320  0.56625371     0.27200
H790        H  0.77864195  0.13669637  0.48815600     0.22000
H791        H  0.71889723  0.08333061  0.44853254     0.27300
H792        H  0.71619840  0.14215415  0.50482469     0.16200
C793        C  0.66851534  0.87640646  0.65332105    -0.11100
C794        C  0.66967371  0.88647778  0.66875764     0.15400
C795        C  0.68457076  0.89721125  0.67156277     0.02300
C796        C  0.69772312  0.89796983  0.65874554    -0.15500
C797        C  0.69660485  0.88808577  0.64313874    -0.10300
C798        C  0.68186466  0.87694034  0.64057600     0.09100
C799        C  0.65504425  0.88586372  0.68157279     0.10100
S800        S  0.68740172  0.91069333  0.69093792    -0.24600
H801        H  0.70886995  0.90661610  0.66092214     0.20300
S802        S  0.67951659  0.86268775  0.62175907    -0.30300
H803        H  0.65715666  0.86801641  0.65123968     0.10700
C804        C  0.64216353  0.89919055  0.68209994     0.03900
C805        C  0.62923785  0.89878551  0.69527295    -0.12600
C806        C  0.62912814  0.88548430  0.70814189    -0.08300
C807        C  0.64171903  0.87180310  0.70715996     0.07300
C808        C  0.65452127  0.87214625  0.69390392    -0.13400
S809        S  0.64257790  0.91700966  0.66634738    -0.30300
H810        H  0.61964652  0.90931065  0.69603130     0.11600
S811        S  0.64204732  0.85349659  0.72225005    -0.27400
H812        H  0.66436244  0.86182317  0.69337520     0.08800
H813        H  0.69740145  0.85784725  0.62127047     0.27200
H814        H  0.62738965  0.92568832  0.67243374     0.22000
H815        H  0.62364483  0.85261913  0.72423692     0.27300
H816        H  0.67795726  0.89989648  0.70258833     0.16200
C817        C  0.75242734  0.89295354  0.51955283    -0.11100
C818        C  0.73662799  0.89635817  0.51062179     0.15400
C819        C  0.72091219  0.89828065  0.52036965     0.02300
C820        C  0.72148267  0.89734816  0.53880656    -0.15500
C821        C  0.73743816  0.89460864  0.54782745    -0.10300
C822        C  0.75298950  0.89181016  0.53791414     0.09100
C823        C  0.73712500  0.89744637  0.49114430     0.10100
S824        S  0.69981126  0.90223665  0.51015300    -0.24600
H825        H  0.70943144  0.89934043  0.54617245     0.20300
S826        S  0.77383108  0.88592630  0.54769147    -0.30300
H827        H  0.76442409  0.89094379  0.51208617     0.10700
C828        C  0.74576918  0.91144317  0.48258341     0.03900
C829        C  0.74693613  0.91149541  0.46416754    -0.12600
C830        C  0.73970298  0.89780675  0.45401780    -0.08300
C831        C  0.73118115  0.88368841  0.46270511     0.07300
C832        C  0.72979299  0.88379338  0.48110588    -0.13400
S833        S  0.75504138  0.92944086  0.49510227    -0.30300
H834        H  0.75342509  0.92235667  0.45761553     0.11600
S835        S  0.72284529  0.86463624  0.45129050    -0.27400
H836        H  0.72345463  0.87285627  0.48771497     0.08800
H837        H  0.76642421  0.87458505  0.56030500     0.27200
H838        H  0.76214307  0.93872476  0.48074486     0.22000
H839        H  0.73748036  0.86312532  0.44003097     0.27300
H840        H  0.70625448  0.91131516  0.49538181     0.16200
C841        C  0.73433660  0.98364882  0.61655078    -0.11100
C842        C  0.75113092  0.99086770  0.61401291     0.15400
C843        C  0.76573791  0.97950651  0.61214223     0.02300
C844        C  0.76309020  0.96124669  0.61213864    -0.15500
C845        C  0.74612807  0.95400471  0.61378126    -0.10300
C846        C  0.73169234  0.96544906  0.61666143     0.09100
C847        C  0.75273159  0.01028053  0.61325978     0.10100
S848        S  0.78795469  0.98740001  0.60919993    -0.24600
H849        H  0.77430374  0.95266096  0.61009592     0.20300
S850        S  0.70967265  0.95778313  0.62113688    -0.30300
H851        H  0.72316543  0.99232713  0.61848817     0.10700
C852        C  0.74533539  0.01986012  0.59920168     0.03900
C853        C  0.74581459  0.03827133  0.59953928    -0.12600
C854        C  0.75384413  0.04748654  0.61347713    -0.08300
C855        C  0.76208169  0.03773663  0.62711110     0.07300
C856        C  0.76114895  0.01930481  0.62700293    -0.13400
S857        S  0.73535379  0.00864291  0.58071217    -0.30300
H858        H  0.73977428  0.04553571  0.58885657     0.11600
S859        S  0.77331278  0.04789038  0.64533866    -0.27400
H860        H  0.76694528  0.01191807  0.63776101     0.08800
H861        H  0.71513940  0.94358365  0.63172897     0.27200
H862        H  0.73244000  0.02366351  0.57027048     0.22000
H863        H  0.78559134  0.05641056  0.63439409     0.27300
H864        H  0.78350604  0.00310670  0.60048890     0.16200
C865        C  0.84760534  0.17932631  0.63181525    -0.11100
C866        C  0.83335157  0.18040762  0.62009546     0.15400
C867        C  0.83163191  0.19527108  0.60910609     0.02300
C868        C  0.84421511  0.20863107  0.60997423    -0.15500
C869        C  0.85873499  0.20750477  0.62141225    -0.10300
C870        C  0.86019544  0.19278317  0.63274537     0.09100
C871        C  0.81983654  0.16645191  0.62033731     0.10100
S872        S  0.81377338  0.19801921  0.59361094    -0.24600
H873        H  0.84291137  0.21978334  0.60116715     0.20300
S874        S  0.87717085  0.19077819  0.64922821    -0.30300
H875        H  0.84868860  0.16810376  0.64056355     0.10700
C876        C  0.82240736  0.15027924  0.61165139     0.03900
C877        C  0.80864541  0.13794817  0.61121209    -0.12600
C878        C  0.79233787  0.14157257  0.61918533    -0.08300
C879        C  0.79013930  0.15757894  0.62846091     0.07300
C880        C  0.80382182  0.16986427  0.62878009    -0.13400
S881        S  0.84282494  0.14582208  0.60030713    -0.30300
H882        H  0.81035235  0.12573417  0.60406882     0.11600
S883        S  0.77043208  0.16298340  0.64052299    -0.27400
H884        H  0.80197281  0.18224987  0.63562013     0.08800
H885        H  0.87716600  0.20877005  0.65364097     0.27200
H886        H  0.83841889  0.12879241  0.59451801     0.22000
H887        H  0.76758382  0.14573960  0.64664488     0.27300
H888        H  0.81046399  0.18006447  0.59069335     0.16200
C889        C  0.98357566  0.23970254  0.59945042    -0.11100
C890        C  0.99221747  0.23770539  0.61562517     0.15400
C891        C  0.98224902  0.23516573  0.63109868     0.02300
C892        C  0.96381808  0.23549126  0.63014239    -0.15500
C893        C  0.95515257  0.23826885  0.61402671    -0.10300
C894        C  0.96521309  0.23976197  0.59843789     0.09100
C895        C  0.01155312  0.23965918  0.61593622     0.10100
S896        S  0.99223973  0.23215950  0.65246231    -0.24600
H897        H  0.95622025  0.23422919  0.64214734     0.20300
S898        S  0.95545482  0.24160502  0.57683524    -0.30300
H899        H  0.99123040  0.24144417  0.58753647     0.10700
C900        C  0.02276177  0.22611080  0.61008728     0.03900
C901        C  0.04099802  0.22903577  0.60953144    -0.12600
C902        C  0.04818256  0.24533630  0.61453079    -0.08300
C903        C  0.03686641  0.25868508  0.62092242     0.07300
C904        C  0.01870407  0.25574689  0.62139280    -0.13400
S905        S  0.01377372  0.20520644  0.60319353    -0.30300
H906        H  0.04963866  0.21880000  0.60465744     0.11600
S907        S  0.04473314  0.27955736  0.62907335    -0.27400
H908        H  0.01003409  0.26610443  0.62600050     0.08800
H909        H  0.94106442  0.23052752  0.58050400     0.27200
H910        H  0.02999179  0.19683761  0.60001368     0.22000
H911        H  0.05986700  0.27257605  0.63721232     0.27300
H912        H  0.00812058  0.22482175  0.64643412     0.16200
C913        C  0.82317714  0.20414739  0.38996225    -0.11100
C914        C  0.82626795  0.18692440  0.39585684     0.15400
C915        C  0.84327652  0.18223195  0.40174640     0.02300
C916        C  0.85673734  0.19480716  0.40168406    -0.15500
C917        C  0.85358053  0.21222206  0.39631168    -0.10300
C918        C  0.83660636  0.21678871  0.39004166     0.09100
C919        C  0.81155654  0.17411434  0.39567411     0.10100
S920        S  0.84850726  0.16061313  0.41007797    -0.24600
H921        H  0.86962735  0.19111597  0.40660635     0.20300
S922        S  0.83137125  0.23823562  0.38136468    -0.30300
H923        H  0.81020308  0.20772307  0.38516849     0.10700
C924        C  0.79754002  0.17543696  0.40774482     0.03900
C925        C  0.78430938  0.16256037  0.40775054    -0.12600
C926        C  0.78485976  0.14824026  0.39605496    -0.08300
C927        C  0.79856494  0.14737755  0.38346985     0.07300
C928        C  0.81182342  0.16020208  0.38353609    -0.13400
S929        S  0.79707719  0.19291221  0.42388041    -0.30300
H930        H  0.77386787  0.16324819  0.41742278     0.11600
S931        S  0.79962962  0.13062300  0.36670038    -0.27400
H932        H  0.82244833  0.15935630  0.37405304     0.08800
H933        H  0.84764427  0.24030584  0.37277905     0.27200
H934        H  0.78104186  0.18816862  0.43183072     0.22000
H935        H  0.78128410  0.12958234  0.36423276     0.27300
H936        H  0.83190633  0.15728462  0.41755058     0.16200
C937        C  0.89624554  0.27073065  0.49016148    -0.11100
C938        C  0.89047768  0.25583923  0.49943187     0.15400
C939        C  0.88439742  0.24103782  0.48996005     0.02300
C940        C  0.88542311  0.24094408  0.47159187    -0.15500
C941        C  0.89177770  0.25556368  0.46225439    -0.10300
C942        C  0.89706048  0.27073030  0.47170982     0.09100
C943        C  0.89221028  0.25550502  0.51887390     0.10100
S944        S  0.87535109  0.22179263  0.50054267    -0.24600
H945        H  0.88105634  0.22935438  0.46449448     0.20300
S946        S  0.90612431  0.28995405  0.46118664    -0.30300
H947        H  0.90089921  0.28212766  0.49738098     0.10700
C948        C  0.90450357  0.24434253  0.52720337     0.03900
C949        C  0.90488443  0.24336069  0.54562353    -0.12600
C950        C  0.89353116  0.25361924  0.55600691    -0.08300
C951        C  0.88156299  0.26519743  0.54759615     0.07300
C952        C  0.88113784  0.26610269  0.52915782    -0.13400
S953        S  0.92010826  0.23174377  0.51438747    -0.30300
H954        H  0.91430761  0.23475967  0.55200869     0.11600
S955        S  0.86591905  0.27846776  0.55950368    -0.27400
H956        H  0.87172373  0.27472102  0.52275490     0.08800
H957        H  0.91633955  0.28045957  0.44900009     0.27200
H958        H  0.92833269  0.22318792  0.52862185     0.22000
H959        H  0.86167873  0.26526478  0.57178074     0.27300
H960        H  0.86873607  0.23061781  0.51540293     0.16200
C961        C  0.01694030  0.23901815  0.41207098    -0.11100
C962        C  0.00845933  0.23456565  0.39630216     0.15400
C963        C  0.01863730  0.22958167  0.38153997     0.02300
C964        C  0.03708044  0.22968274  0.38282008    -0.15500
C965        C  0.04558882  0.23489048  0.39841955    -0.10300
C966        C  0.03529102  0.23899048  0.41338178     0.09100
C967        C  0.98907181  0.23624485  0.39571428     0.10100
S968        S  0.00913398  0.22332465  0.36062877    -0.24600
H969        H  0.04483948  0.22639925  0.37131042     0.20300
S970        S  0.04468839  0.24389559  0.43465948    -0.30300
H971        H  0.00914771  0.24258187  0.42348318     0.10700
C972        C  0.97783535  0.22169568  0.39809735     0.03900
C973        C  0.95951704  0.22436335  0.39876618    -0.12600
C974        C  0.95227630  0.24133296  0.39712808    -0.08300
C975        C  0.96367245  0.25573480  0.39391463     0.07300
C976        C  0.98187052  0.25306381  0.39355802    -0.13400
S977        S  0.98689480  0.19990213  0.40090438    -0.30300
H978        H  0.95086208  0.21330545  0.40118409     0.11600
S979        S  0.95591053  0.27776971  0.38963671    -0.27400
H980        H  0.99054419  0.26420351  0.39148680     0.08800
H981        H  0.05871570  0.23187784  0.43311349     0.27200
H982        H  0.97069715  0.19092642  0.40135828     0.22000
H983        H  0.94130669  0.27240074  0.37953663     0.27300
H984        H  0.99225202  0.23043879  0.36303011     0.16200
C985        C  0.11730212  0.26899361  0.52128923    -0.11100
C986        C  0.10601827  0.25760893  0.51213033     0.15400
C987        C  0.09484976  0.24627343  0.52166306     0.02300
C988        C  0.09548307  0.24625348  0.54006218    -0.15500
C989        C  0.10688506  0.25750072  0.54940397    -0.10300
C990        C  0.11800425  0.26896103  0.53974463     0.09100
C991        C  0.10731366  0.25658813  0.49271424     0.10100
S992        S  0.07958928  0.23142575  0.51109879    -0.24600
H993        H  0.08677617  0.23744856  0.54713708     0.20300
S994        S  0.13412050  0.28305488  0.54994996    -0.30300
H995        H  0.12609733  0.27751059  0.51396785     0.10700
C996        C  0.09940615  0.26922612  0.48167259     0.03900
C997        C  0.10018704  0.26702900  0.46331905    -0.12600
C998        C  0.10874857  0.25243099  0.45580920    -0.08300
C999        C  0.11749399  0.24034146  0.46700083     0.07300
C1000       C  0.11642781  0.24240358  0.48526112    -0.13400
S1001       S  0.08753657  0.28758712  0.49099578    -0.30300
H1002       H  0.09351678  0.27633640  0.45481977     0.11600
S1003       S  0.13065939  0.22232199  0.45889395    -0.27400
H1004       H  0.12282219  0.23289482  0.49377997     0.08800
H1005       H  0.14044290  0.26989022  0.56136870     0.27200
H1006       H  0.08271137  0.29545321  0.47492652     0.22000
H1007       H  0.13751291  0.23171817  0.44447236     0.27300
H1008       H  0.07634391  0.24204421  0.49628510     0.16200
C1009       C  0.15210751  0.18295994  0.61896701    -0.11100
C1010       C  0.16991740  0.18767523  0.62010926     0.15400
C1011       C  0.17455915  0.20567246  0.62023839     0.02300
C1012       C  0.16140512  0.21847190  0.61857466    -0.15500
C1013       C  0.14356855  0.21379202  0.61699650    -0.10300
C1014       C  0.13893995  0.19572517  0.61725645     0.09100
C1015       C  0.18334820  0.17359195  0.61881417     0.10100
S1016       S  0.19703563  0.21312893  0.62224393    -0.24600
H1017       H  0.16516212  0.23223205  0.61849279     0.20300
S1018       S  0.11677434  0.18790785  0.61390906    -0.30300
H1019       H  0.14851623  0.16916046  0.61846116     0.10700
C1020       C  0.18522262  0.16050051  0.63184639     0.03900
C1021       C  0.19777086  0.14712303  0.62954670    -0.12600
C1022       C  0.20847366  0.14657777  0.61448590    -0.08300
C1023       C  0.20619181  0.15948642  0.60124532     0.07300
C1024       C  0.19383107  0.17288725  0.60365153    -0.13400
S1025       S  0.17207285  0.16113378  0.65164021    -0.30300
H1026       H  0.19950806  0.13723511  0.63966882     0.11600
S1027       S  0.21787812  0.15913211  0.58057780    -0.27400
H1028       H  0.19205165  0.18266239  0.59340193     0.08800
H1029       H  0.11341850  0.19914931  0.59955619     0.27200
H1030       H  0.17904424  0.14582943  0.65941198     0.22000
H1031       H  0.21730228  0.14071703  0.57866628     0.27300
H1032       H  0.20312100  0.19855469  0.63191551     0.16200
C1033       C  0.32684556  0.12823598  0.70490358    -0.11100
C1034       C  0.32873554  0.11946989  0.68875716     0.15400
C1035       C  0.34477187  0.11086977  0.68490683     0.02300
C1036       C  0.35834445  0.11087763  0.69737575    -0.15500
C1037       C  0.35620906  0.11896839  0.71385116    -0.10300
C1038       C  0.34040828  0.12817044  0.71742515     0.09100
C1039       C  0.31382532  0.11943248  0.67616198     0.10100
S1040       S  0.34854861  0.09912793  0.66460281    -0.24600
H1041       H  0.37036944  0.10374496  0.69449675     0.20300
S1042       S  0.33691574  0.14046558  0.73742850    -0.30300
H1043       H  0.31469997  0.13517488  0.70774932     0.10700
C1044       C  0.29853786  0.10942113  0.67936343     0.03900
C1045       C  0.28541413  0.10844157  0.66636973    -0.12600
C1046       C  0.28721550  0.11729045  0.65020260    -0.08300
C1047       C  0.30212833  0.12816478  0.64753923     0.07300
C1048       C  0.31532543  0.12891654  0.66041046    -0.13400
S1049       S  0.29619230  0.09708170  0.69957470    -0.30300
H1050       H  0.27400116  0.10019352  0.66855915     0.11600
S1051       S  0.30495506  0.14175467  0.62830422    -0.27400
H1052       H  0.32692482  0.13690712  0.65811950     0.08800
H1053       H  0.35456183  0.14584705  0.73923858     0.27200
H1054       H  0.27959637  0.08976661  0.69578419     0.22000
H1055       H  0.28707588  0.14653212  0.62715197     0.27300
H1056       H  0.33109845  0.09340079  0.66224664     0.16200
C1057       C  0.29529471  0.88117734  0.66890246    -0.11100
C1058       C  0.31141775  0.88973828  0.66606354     0.15400
C1059       C  0.31466240  0.89758613  0.64951285     0.02300
C1060       C  0.30153877  0.89727212  0.63650438    -0.15500
C1061       C  0.28498943  0.88962777  0.63970947    -0.10300
C1062       C  0.28216103  0.88090733  0.65593616     0.09100
C1063       C  0.32435304  0.89054432  0.68074807     0.10100
S1064       S  0.33492658  0.90887111  0.64441609    -0.24600
H1065       H  0.30398068  0.90386548  0.62409301     0.20300
S1066       S  0.26233040  0.86879911  0.66077648    -0.30300
H1067       H  0.29289985  0.87472569  0.68140235     0.10700
C1068       C  0.32089185  0.90055471  0.69597667     0.03900
C1069       C  0.33338289  0.90110280  0.70958814    -0.12600
C1070       C  0.34943737  0.89190065  0.70843821    -0.08300
C1071       C  0.35272007  0.88163847  0.69316860     0.07300
C1072       C  0.34024550  0.88120812  0.67951309    -0.13400
S1073       S  0.30085055  0.91328663  0.69779617    -0.30300
H1074       H  0.33073726  0.90910365  0.72107409     0.11600
S1075       S  0.37221158  0.86841999  0.69035893    -0.27400
H1076       H  0.34284878  0.87336564  0.66788020     0.08800
H1077       H  0.26025393  0.86223762  0.64356657     0.27200
H1078       H  0.30417328  0.92034107  0.71460008     0.22000
H1079       H  0.37149625  0.86127211  0.70744092     0.27300
H1080       H  0.33802981  0.91531480  0.66149317     0.16200
C1081       C  0.22120626  0.98277387  0.61530775    -0.11100
C1082       C  0.23330333  0.99298942  0.60578598     0.15400
C1083       C  0.24490949  0.98452609  0.59400018     0.02300
C1084       C  0.24506756  0.96615935  0.59293668    -0.15500
C1085       C  0.23347269  0.95575114  0.60294167    -0.10300
C1086       C  0.22082090  0.96436631  0.61364662     0.09100
C1087       C  0.23447514  0.01224574  0.60908231     0.10100
S1088       S  0.26001416  0.99642494  0.58005342    -0.24600
H1089       H  0.25459454  0.95996901  0.58431872     0.20300
S1090       S  0.20361123  0.95284717  0.62517321    -0.30300
H1091       H  0.21201864  0.98919374  0.62413296     0.10700
C1092       C  0.22075882  0.02393093  0.60451601     0.03900
C1093       C  0.22328487  0.04215912  0.60653734    -0.12600
C1094       C  0.23936849  0.04897128  0.61269814    -0.08300
C1095       C  0.25276753  0.03714610  0.61798400     0.07300
C1096       C  0.25016372  0.01901891  0.61613068    -0.13400
S1097       S  0.20055959  0.01577463  0.59493269    -0.30300
H1098       H  0.21301852  0.05118805  0.60247482     0.11600
S1099       S  0.27345579  0.04425793  0.62727093    -0.27400
H1100       H  0.26061949  0.01006391  0.61993005     0.08800
H1101       H  0.19967129  0.94166536  0.61091996     0.27200
H1102       H  0.19261291  0.03226167  0.59208436     0.22000
H1103       H  0.26633889  0.05869832  0.63643114     0.27300
H1104       H  0.24932955  0.01141252  0.57798600     0.16200
C1105       C  0.25150298  0.90409636  0.48122998    -0.11100
C1106       C  0.25720935  0.88842622  0.48910152     0.15400
C1107       C  0.26261407  0.87426136  0.47836494     0.02300
C1108       C  0.26142605  0.87582365  0.46000950    -0.15500
C1109       C  0.25503434  0.89128172  0.45208041    -0.10300
C1110       C  0.25059447  0.90579099  0.46291943     0.09100
C1111       C  0.25594513  0.88700031  0.50847222     0.10100
S1112       S  0.27026076  0.85358810  0.48721668    -0.24600
H1113       H  0.26497379  0.86464656  0.45188711     0.20300
S1114       S  0.24391982  0.92690484  0.45433009    -0.30300
H1115       H  0.24755745  0.91506303  0.48946553     0.10700
C1116       C  0.26975112  0.89246354  0.51958383     0.03900
C1117       C  0.26718443  0.89258859  0.53788984    -0.12600
C1118       C  0.25097344  0.88756037  0.54530946    -0.08300
C1119       C  0.23748697  0.88121971  0.53405342     0.07300
C1120       C  0.24005731  0.88123931  0.51581574    -0.13400
S1121       S  0.29044870  0.89965812  0.51037248    -0.30300
H1122       H  0.27760606  0.89732883  0.54639805     0.11600
S1123       S  0.21682250  0.87267933  0.54200888    -0.27400
H1124       H  0.22951063  0.87687219  0.50722564     0.08800
H1125       H  0.25568142  0.92660745  0.44002318     0.27200
H1126       H  0.29878071  0.90355118  0.52646523     0.22000
H1127       H  0.22428539  0.86409440  0.55665398     0.27300
H1128       H  0.27677737  0.86023574  0.50319500     0.16200
C1129       C  0.19842052  0.16580030  0.38625941    -0.11100
C1130       C  0.18184054  0.16157306  0.39322496     0.15400
C1131       C  0.17892222  0.14447121  0.39991367     0.02300
C1132       C  0.19266348  0.13218019  0.39976520    -0.15500
C1133       C  0.20951613  0.13669064  0.39361711    -0.10300
C1134       C  0.21224229  0.15362911  0.38639242     0.09100
C1135       C  0.16795613  0.17531055  0.39326190     0.10100
S1136       S  0.15829799  0.13774880  0.40957924    -0.24600
H1137       H  0.19039735  0.11925283  0.40535136     0.20300
S1138       S  0.23283079  0.16044180  0.37675179    -0.30300
H1139       H  0.20061633  0.17876260  0.38071810     0.10700
C1140       C  0.17007811  0.19100384  0.40294520     0.03900
C1141       C  0.15689545  0.20386593  0.40232712    -0.12600
C1142       C  0.14142387  0.20138036  0.39246530    -0.08300
C1143       C  0.13933763  0.18564721  0.38272031     0.07300
C1144       C  0.15258974  0.17280430  0.38325831    -0.13400
S1145       S  0.18919941  0.19440311  0.41676488    -0.30300
H1146       H  0.15844622  0.21578372  0.40999042     0.11600
S1147       S  0.12052438  0.18141533  0.36886784    -0.27400
H1148       H  0.15103262  0.16084034  0.37564095     0.08800
H1149       H  0.23666002  0.14394237  0.36925119     0.27200
H1150       H  0.18426101  0.21093155  0.42349535     0.22000
H1151       H  0.11908249  0.19883309  0.36273865     0.27300
H1152       H  0.15396591  0.15429371  0.41665474     0.16200
C1153       C  0.22609922  0.97719340  0.39778936    -0.11100
C1154       C  0.23961525  0.98619990  0.38900402     0.15400
C1155       C  0.25262092  0.97648145  0.37997676     0.02300
C1156       C  0.25239169  0.95809216  0.38072432    -0.15500
C1157       C  0.23925761  0.94900123  0.39003718    -0.10300
C1158       C  0.22581803  0.95875587  0.39849880     0.09100
C1159       C  0.24118856  0.00548748  0.39147033     0.10100
S1160       S  0.27006006  0.98677986  0.36757948    -0.24600
H1161       H  0.26266481  0.95079584  0.37402374     0.20300
S1162       S  0.20885503  0.94866020  0.41163426    -0.30300
H1163       H  0.21622703  0.98460850  0.40494081     0.10700
C1164       C  0.22929296  0.01745589  0.38376505     0.03900
C1165       C  0.23150147  0.03560225  0.38666100    -0.12600
C1166       C  0.24525278  0.04205168  0.39733074    -0.08300
C1167       C  0.25670085  0.02980213  0.40556814     0.07300
C1168       C  0.25472907  0.01181220  0.40228586    -0.13400
S1169       S  0.21168972  0.00964475  0.36979486    -0.30300
H1170       H  0.22263539  0.04481265  0.38034281     0.11600
S1171       S  0.27344256  0.03599373  0.42120053    -0.27400
H1172       H  0.26360189  0.00255767  0.40858355     0.08800
H1173       H  0.22027608  0.93668074  0.41997247     0.27200
H1174       H  0.20378359  0.02612775  0.36681214     0.22000
H1175       H  0.26222664  0.04752319  0.43030733     0.27300
H1176       H  0.26075318  0.00225074  0.36347150     0.16200
C1177       C  0.27414897  0.10610740  0.52599007    -0.11100
C1178       C  0.26056898  0.11339526  0.51580355     0.15400
C1179       C  0.24537390  0.12001098  0.52421827     0.02300
C1180       C  0.24385565  0.11866018  0.54252865    -0.15500
C1181       C  0.25721558  0.11091669  0.55273522    -0.10300
C1182       C  0.27256747  0.10461844  0.54429867     0.09100
C1183       C  0.26115086  0.11091862  0.49651890     0.10100
S1184       S  0.22704583  0.12943583  0.51232188    -0.24600
H1185       H  0.23204497  0.12357371  0.54885820     0.20300
S1186       S  0.28981101  0.09308339  0.55586066    -0.30300
H1187       H  0.28559812  0.10058110  0.51950898     0.10700
C1188       C  0.26884475  0.12329883  0.48506338     0.03900
C1189       C  0.26806866  0.12043810  0.46676122    -0.12600
C1190       C  0.25988145  0.10532665  0.45981723    -0.08300
C1191       C  0.25318246  0.09251342  0.47156581     0.07300
C1192       C  0.25363148  0.09558979  0.48965913    -0.13400
S1193       S  0.27894635  0.14296754  0.49377218    -0.30300
H1194       H  0.27334313  0.13022045  0.45784672     0.11600
S1195       S  0.24456032  0.07160478  0.46443293    -0.27400
H1196       H  0.24816442  0.08585441  0.49854393     0.08800
H1197       H  0.27829723  0.08338320  0.56665205     0.27200
H1198       H  0.28437397  0.14993400  0.47749677     0.22000
H1199       H  0.25737717  0.06941686  0.45128733     0.27300
H1200       H  0.23642592  0.13460629  0.49727209     0.16200
C1201       C  0.97272851  0.62481652  0.76433216    -0.11100
C1202       C  0.98309229  0.61347125  0.75409301     0.15400
C1203       C  0.97476041  0.60083505  0.74326537     0.02300
C1204       C  0.95637731  0.60018321  0.74250862    -0.15500
C1205       C  0.94592602  0.61153819  0.75267515    -0.10300
C1206       C  0.95427672  0.62413219  0.76359606     0.09100
C1207       C  0.00251825  0.61536537  0.75445415     0.10100
S1208       S  0.98678857  0.58508018  0.73014687    -0.24600
H1209       H  0.95016929  0.59038944  0.73417948     0.20300
S1210       S  0.94223705  0.64033729  0.77605596    -0.30300
H1211       H  0.97906895  0.63462099  0.77254399     0.10700
C1212       C  0.01181591  0.62166786  0.73969616     0.03900
C1213       C  0.03027679  0.62097522  0.73963020    -0.12600
C1214       C  0.03970456  0.61439088  0.75414602    -0.08300
C1215       C  0.03032172  0.60880207  0.76923128     0.07300
C1216       C  0.01187122  0.60952803  0.76928192    -0.13400
S1217       S  0.00013789  0.63057007  0.72094596    -0.30300
H1218       H  0.03743603  0.62549419  0.72816728     0.11600
S1219       S  0.04095342  0.59935533  0.78824165    -0.27400
H1220       H  0.00471482  0.60466235  0.78062097     0.08800
H1221       H  0.92947494  0.64332273  0.76293045     0.27200
H1222       H  0.01503660  0.63394515  0.71048764     0.22000
H1223       H  0.05293110  0.58912848  0.77848942     0.27300
H1224       H  0.00154670  0.58386436  0.74127388     0.16200
C1225       C  0.88434466  0.32733217  0.70616907    -0.11100
C1226       C  0.88842435  0.33226956  0.68886294     0.15400
C1227       C  0.89084065  0.35023400  0.68483320     0.02300
C1228       C  0.88964277  0.36277135  0.69828219    -0.15500
C1229       C  0.88641814  0.35777744  0.71581425    -0.10300
C1230       C  0.88316807  0.33983780  0.71962155     0.09100
C1231       C  0.89007472  0.31828967  0.67542336     0.10100
S1232       S  0.89610115  0.35794768  0.66299445    -0.24600
H1233       H  0.89209981  0.37646391  0.69513391     0.20300
S1234       S  0.87700621  0.33204317  0.74116928    -0.30300
H1235       H  0.88206269  0.31357760  0.70920091     0.10700
C1236       C  0.90435474  0.30646124  0.67571574     0.03900
C1237       C  0.90513096  0.29290071  0.66324743    -0.12600
C1238       C  0.89186837  0.29080046  0.65047917    -0.08300
C1239       C  0.87747692  0.30267456  0.65034384     0.07300
C1240       C  0.87686718  0.31638353  0.66265811    -0.13400
S1241       S  0.92185635  0.30892478  0.69168902    -0.30300
H1242       H  0.91627299  0.28400360  0.66331490     0.11600
S1243       S  0.85901489  0.30053578  0.63556962    -0.27400
H1244       H  0.86576397  0.32535626  0.66262283     0.08800
H1245       H  0.86647170  0.34674666  0.74519377     0.27200
H1246       H  0.93092365  0.29334284  0.68745264     0.22000
H1247       H  0.85774411  0.28215447  0.63749449     0.27300
H1248       H  0.90560357  0.34296949  0.65772787     0.16200
C1249       C  0.88853283  0.48036496  0.72777463    -0.11100
C1250       C  0.88577615  0.49108548  0.74253523     0.15400
C1251       C  0.88390811  0.48328522  0.75929445     0.02300
C1252       C  0.88535214  0.46504443  0.76101099    -0.15500
C1253       C  0.88836516  0.45422224  0.74633536    -0.10300
C1254       C  0.89002289  0.46205520  0.72949688     0.09100
C1255       C  0.88660512  0.51040102  0.74049658     0.10100
S1256       S  0.88030656  0.49589267  0.77911563    -0.24600
H1257       H  0.88401757  0.45923701  0.77397907     0.20300
S1258       S  0.89530483  0.44968250  0.70995873    -0.30300
H1259       H  0.89027525  0.48637534  0.71495236     0.10700
C1260       C  0.90225805  0.51959980  0.74420572     0.03900
C1261       C  0.90204867  0.53802894  0.74456357    -0.12600
C1262       C  0.88648735  0.54751828  0.74127205    -0.08300
C1263       C  0.87095467  0.53818465  0.73682910     0.07300
C1264       C  0.87126327  0.51974671  0.73624142    -0.13400
S1265       S  0.92239863  0.50781016  0.74892775    -0.30300
H1266       H  0.91402315  0.54510034  0.74773050     0.11600
S1267       S  0.85004530  0.54881536  0.73324447    -0.27400
H1268       H  0.85922211  0.51260227  0.73345252     0.08800
H1269       H  0.90788338  0.43891758  0.71830965     0.27200
H1270       H  0.93341133  0.52265206  0.75011186     0.22000
H1271       H  0.85172875  0.56030023  0.74768913     0.27300
H1272       H  0.87104271  0.50980124  0.77119565     0.16200
C1273       C  0.09868398  0.33494627  0.69804878    -0.11100
C1274       C  0.11151306  0.33723105  0.68500568     0.15400
C1275       C  0.12213786  0.35247403  0.68526826     0.02300
C1276       C  0.11985830  0.36493396  0.69870538    -0.15500
C1277       C  0.10721478  0.36251014  0.71200793    -0.10300
C1278       C  0.09620371  0.34747483  0.71130062     0.09100
C1279       C  0.11266646  0.32382781  0.67089034     0.10100
S1280       S  0.13880553  0.35675770  0.66891857    -0.24600
H1281       H  0.12826836  0.37645288  0.69894610     0.20300
S1282       S  0.07800415  0.34396943  0.72612971    -0.30300
H1283       H  0.09018075  0.32349265  0.69759353     0.10700
C1284       C  0.11994035  0.30708170  0.67412905     0.03900
C1285       C  0.11907637  0.29409401  0.66100600    -0.12600
C1286       C  0.11108424  0.29749177  0.64463563    -0.08300
C1287       C  0.10393920  0.31442849  0.64143674     0.07300
C1288       C  0.10502620  0.32742213  0.65447812    -0.13400
S1289       S  0.13036502  0.30232173  0.69499271    -0.30300
H1290       H  0.12457071  0.28118670  0.66353748     0.11600
S1291       S  0.09201969  0.31993630  0.62165281    -0.27400
H1292       H  0.09917473  0.34022340  0.65211135     0.08800
H1293       H  0.07240021  0.36163450  0.72586505     0.27200
H1294       H  0.13569560  0.28506945  0.69089438     0.22000
H1295       H  0.08223555  0.30420172  0.62138558     0.27300
H1296       H  0.14258024  0.33906736  0.66504241     0.16200
C1297       C  0.97818919  0.40250365  0.77825982    -0.11100
C1298       C  0.98791411  0.39510494  0.76442604     0.15400
C1299       C  0.97897481  0.38785533  0.74982015     0.02300
C1300       C  0.96059578  0.38834572  0.74927798    -0.15500
C1301       C  0.95076223  0.39594491  0.76295478    -0.10300
C1302       C  0.95975317  0.40326129  0.77756898     0.09100
C1303       C  0.00730026  0.39675644  0.76463514     0.10100
S1304       S  0.99014091  0.37866331  0.73095739    -0.24600
H1305       H  0.95390184  0.38278395  0.73795298     0.20300
S1306       S  0.94869112  0.41500201  0.79496091    -0.30300
H1307       H  0.98506031  0.40846802  0.78926737     0.10700
C1308       C  0.01562021  0.41124829  0.75667576     0.03900
C1309       C  0.03404018  0.41168125  0.75562930    -0.12600
C1310       C  0.04441686  0.39784998  0.76230713    -0.08300
C1311       C  0.03591036  0.38338599  0.77048460     0.07300
C1312       C  0.01750552  0.38318956  0.77185822    -0.13400
S1313       S  0.00270246  0.42907452  0.74761469    -0.30300
H1314       H  0.04038832  0.42283582  0.74944978     0.11600
S1315       S  0.04750996  0.36421464  0.77826841    -0.27400
H1316       H  0.01102391  0.37196172  0.77780768     0.08800
H1317       H  0.93717844  0.42406509  0.78358737     0.27200
H1318       H  0.01695128  0.43956066  0.74215584     0.22000
H1319       H  0.05786079  0.36258205  0.76298805     0.27300
H1320       H  0.00562654  0.37346573  0.73960969     0.16200
C1321       C  0.09029392  0.52146998  0.74829434    -0.11100
C1322       C  0.10700872  0.51437614  0.74487643     0.15400
C1323       C  0.12083797  0.52574144  0.73982596     0.02300
C1324       C  0.11775614  0.54390408  0.73884922    -0.15500
C1325       C  0.10126320  0.55106781  0.74319812    -0.10300
C1326       C  0.08724942  0.53958798  0.74745930     0.09100
C1327       C  0.10929500  0.49507232  0.74658640     0.10100
S1328       S  0.14283288  0.51805776  0.73518684    -0.24600
H1329       H  0.12857914  0.55258022  0.73551266     0.20300
S1330       S  0.06508360  0.54711508  0.75150427    -0.30300
H1331       H  0.07950374  0.51276309  0.75167409     0.10700
C1332       C  0.10701390  0.48661780  0.76293397     0.03900
C1333       C  0.10714243  0.46820383  0.76371945    -0.12600
C1334       C  0.10987840  0.45789492  0.74855946    -0.08300
C1335       C  0.11374938  0.46655437  0.73247319     0.07300
C1336       C  0.11293482  0.48495955  0.73158503    -0.13400
S1337       S  0.10395005  0.49928333  0.78286082    -0.30300
H1338       H  0.10467321  0.46183515  0.77621987     0.11600
S1339       S  0.12006393  0.45511822  0.71269465    -0.27400
H1340       H  0.11511387  0.49147240  0.71907850     0.08800
H1341       H  0.06565329  0.56082221  0.73905391     0.27200
H1342       H  0.10331178  0.48496451  0.79458461     0.22000
H1343       H  0.13212066  0.44405145  0.72142876     0.27300
H1344       H  0.14250665  0.50370838  0.74686678     0.16200
C1345       C  0.16577308  0.79742775  0.37912764    -0.11100
C1346       C  0.16212938  0.81392908  0.38657077     0.15400
C1347       C  0.14510484  0.81737951  0.39317820     0.02300
C1348       C  0.13228964  0.80415168  0.39260291    -0.15500
C1349       C  0.13611069  0.78735948  0.38586261    -0.10300
C1350       C  0.15293690  0.78419799  0.37852429     0.09100
C1351       C  0.17642138  0.82715529  0.38739775     0.10100
S1352       S  0.13894509  0.83818408  0.40285338    -0.24600
H1353       H  0.11943130  0.80678283  0.39820283     0.20300
S1354       S  0.15868522  0.76386132  0.36771807    -0.30300
H1355       H  0.17872831  0.79486836  0.37371633     0.10700
C1356       C  0.18944083  0.82634067  0.40059130     0.03900
C1357       C  0.20280897  0.83908231  0.40100002    -0.12600
C1358       C  0.20351284  0.85268483  0.38844189    -0.08300
C1359       C  0.19054042  0.85320415  0.37501249     0.07300
C1360       C  0.17704947  0.84060474  0.37479199    -0.13400
S1361       S  0.18872053  0.80930516  0.41718455    -0.30300
H1362       H  0.21262109  0.83860074  0.41134615     0.11600
S1363       S  0.19089656  0.86896196  0.35729519    -0.27400
H1364       H  0.16713303  0.84107572  0.36452002     0.08800
H1365       H  0.14184609  0.76096582  0.36050323     0.27200
H1366       H  0.20341095  0.81504775  0.42691915     0.22000
H1367       H  0.20925574  0.86807569  0.35490187     0.27300
H1368       H  0.15571904  0.84286172  0.40911311     0.16200
C1369       C  0.81546537  0.84831039  0.38838048    -0.11100
C1370       C  0.80952534  0.83082977  0.38842935     0.15400
C1371       C  0.79124172  0.82749850  0.38937702     0.02300
C1372       C  0.77945122  0.84163067  0.39051225    -0.15500
C1373       C  0.78536485  0.85917909  0.39048123    -0.10300
C1374       C  0.80370271  0.86244537  0.38947394     0.09100
C1375       C  0.82284816  0.81653084  0.38908899     0.10100
S1376       S  0.78207274  0.80558559  0.38913177    -0.24600
H1377       H  0.76546931  0.83885566  0.39126161     0.20300
S1378       S  0.81315400  0.88415599  0.39071419    -0.30300
H1379       H  0.82949492  0.85095458  0.38812294     0.10700
C1380       C  0.83531212  0.81414553  0.37552151     0.03900
C1381       C  0.84846564  0.80127227  0.37737595    -0.12600
C1382       C  0.84932625  0.79059292  0.39244264    -0.08300
C1383       C  0.83687533  0.79312397  0.40606348     0.07300
C1384       C  0.82377363  0.80593210  0.40418175    -0.13400
S1385       S  0.83408862  0.82701584  0.35554994    -0.30300
H1386       H  0.85789943  0.79924360  0.36688865     0.11600
S1387       S  0.83753209  0.78117676  0.42658424    -0.27400
H1388       H  0.81448606  0.80800648  0.41481068     0.08800
H1389       H  0.80270181  0.88940504  0.40507960     0.27200
H1390       H  0.84990253  0.82092353  0.34808111     0.22000
H1391       H  0.85601733  0.78127968  0.42801290     0.27300
H1392       H  0.79568410  0.79780634  0.37929826     0.16200
C1393       C  0.97469028  0.74599922  0.38124488    -0.11100
C1394       C  0.98322979  0.76041008  0.38896067     0.15400
C1395       C  0.97307336  0.77417545  0.39625483     0.02300
C1396       C  0.95465568  0.77266440  0.39667794    -0.15500
C1397       C  0.94613634  0.75780519  0.38968464    -0.10300
C1398       C  0.95632294  0.74468824  0.38125622     0.09100
C1399       C  0.00269046  0.75989516  0.39022746     0.10100
S1400       S  0.98284960  0.79361765  0.40575550    -0.24600
H1401       H  0.94697524  0.78290780  0.40296841     0.20300
S1402       S  0.94669642  0.72613002  0.36996837    -0.30300
H1403       H  0.98243616  0.73557359  0.37533235     0.10700
C1404       C  0.01109791  0.75367920  0.40555140     0.03900
C1405       C  0.02947736  0.75176844  0.40574004    -0.12600
C1406       C  0.03972658  0.75589974  0.39088226    -0.08300
C1407       C  0.03117252  0.76224479  0.37554697     0.07300
C1408       C  0.01281430  0.76424739  0.37543915    -0.13400
S1409       S  0.99833079  0.74756484  0.42466127    -0.30300
H1410       H  0.03589676  0.74689486  0.41751073     0.11600
S1411       S  0.04266213  0.76692698  0.35534605    -0.27400
H1412       H  0.00629003  0.76874836  0.36355893     0.08800
H1413       H  0.93188263  0.73538846  0.36374490     0.27200
H1414       H  0.01268497  0.74407821  0.43586671     0.22000
H1415       H  0.05305054  0.75159287  0.35599213     0.27300
H1416       H  0.99823708  0.79346292  0.39549284     0.16200
C1417       C  0.14519697  0.82157344  0.62038094    -0.11100
C1418       C  0.15988648  0.82062771  0.60921573     0.15400
C1419       C  0.16158609  0.80609037  0.59773745     0.02300
C1420       C  0.14860836  0.79301187  0.59758334    -0.15500
C1421       C  0.13366658  0.79411180  0.60844323    -0.10300
C1422       C  0.13220369  0.80846528  0.62023940     0.09100
C1423       C  0.17360157  0.83453149  0.61030479     0.10100
S1424       S  0.17980860  0.80360271  0.58270008    -0.24600
H1425       H  0.14997091  0.78211203  0.58847839     0.20300
S1426       S  0.11467613  0.81037251  0.63609261    -0.30300
H1427       H  0.14403920  0.83245193  0.62954073     0.10700
C1428       C  0.17013454  0.85205180  0.60522893     0.03900
C1429       C  0.18383531  0.86445928  0.60545184    -0.12600
C1430       C  0.20102675  0.85975557  0.61052942    -0.08300
C1431       C  0.20421518  0.84233777  0.61638848     0.07300
C1432       C  0.19054412  0.82997760  0.61611843    -0.13400
S1433       S  0.14857685  0.85840329  0.59735882    -0.30300
H1434       H  0.18129435  0.87772476  0.60090544     0.11600
S1435       S  0.22525005  0.83503764  0.62465365    -0.27400
H1436       H  0.19314736  0.81661143  0.62038282     0.08800
H1437       H  0.11457338  0.79234755  0.64037578     0.27200
H1438       H  0.15213836  0.87647474  0.59546903     0.22000
H1439       H  0.22875230  0.85071484  0.63388302     0.27300
H1440       H  0.18226903  0.82167999  0.57958733     0.16200
C1441       C  0.11436284  0.68461792  0.65059438    -0.11100
C1442       C  0.10233777  0.68423012  0.66459425     0.15400
C1443       C  0.08937674  0.69748950  0.66584356     0.02300
C1444       C  0.08898858  0.71102287  0.65341478    -0.15500
C1445       C  0.10096538  0.71149510  0.63934908    -0.10300
C1446       C  0.11387147  0.69810025  0.63801135     0.09100
C1447       C  0.10421740  0.67060960  0.67840015     0.10100
S1448       S  0.07279129  0.69775601  0.68284536    -0.24600
H1449       H  0.07889304  0.72105455  0.65450864     0.20300
S1450       S  0.13063150  0.69791551  0.62123580    -0.30300
H1451       H  0.12448712  0.67459380  0.64974334     0.10700
C1452       C  0.10024311  0.65281102  0.67512339     0.03900
C1453       C  0.10062440  0.64075051  0.68909610    -0.12600
C1454       C  0.10473685  0.64613453  0.70634482    -0.08300
C1455       C  0.10962607  0.66386950  0.70938235     0.07300
C1456       C  0.10927708  0.67586409  0.69535676    -0.13400
S1457       S  0.09367949  0.64564028  0.65339960    -0.30300
H1458       H  0.09700460  0.62717719  0.68668189     0.11600
S1459       S  0.11671626  0.67142225  0.73084212    -0.27400
H1460       H  0.11263514  0.68953706  0.69759145     0.08800
H1461       H  0.13368003  0.71617233  0.62192826     0.27200
H1462       H  0.09040429  0.62795258  0.65778283     0.22000
H1463       H  0.11946468  0.68915915  0.72629742     0.27300
H1464       H  0.07153254  0.67937801  0.68464183     0.16200
C1465       C  0.11213542  0.73259282  0.51872244    -0.11100
C1466       C  0.09977710  0.74099555  0.50789038     0.15400
C1467       C  0.08618784  0.75108069  0.51555689     0.02300
C1468       C  0.08566697  0.75312328  0.53381707    -0.15500
C1469       C  0.09818165  0.74500055  0.54475191    -0.10300
C1470       C  0.11157868  0.73457590  0.53704610     0.09100
C1471       C  0.10210857  0.74028512  0.48862847     0.10100
S1472       S  0.06935675  0.76202813  0.50278924    -0.24600
H1473       H  0.07523225  0.76099072  0.53955690     0.20300
S1474       S  0.12896094  0.72441769  0.54964276    -0.30300
H1475       H  0.12266816  0.72499633  0.51280800     0.10700
C1476       C  0.10985295  0.75442211  0.47951604     0.03900
C1477       C  0.10986656  0.75436874  0.46107559    -0.12600
C1478       C  0.10216753  0.74050467  0.45152694    -0.08300
C1479       C  0.09484171  0.72609198  0.46081314     0.07300
C1480       C  0.09520950  0.72599757  0.47924182    -0.13400
S1481       S  0.11937296  0.77269539  0.49142810    -0.30300
H1482       H  0.11562728  0.76534114  0.45404257     0.11600
S1483       S  0.08340340  0.70826893  0.45012661    -0.27400
H1484       H  0.08911844  0.71522342  0.48633458     0.08800
H1485       H  0.13152672  0.73898650  0.56080076     0.27200
H1486       H  0.12416727  0.78271141  0.47661301     0.22000
H1487       H  0.07362534  0.71933314  0.43890628     0.27300
H1488       H  0.06931131  0.75025236  0.48853689     0.16200
C1489       C  0.83499205  0.82180045  0.60897196    -0.11100
C1490       C  0.81869270  0.81673707  0.61605665     0.15400
C1491       C  0.81608539  0.79895134  0.62085059     0.02300
C1492       C  0.82961509  0.78670960  0.61821149    -0.15500
C1493       C  0.84595289  0.79175709  0.61115868    -0.10300
C1494       C  0.84856007  0.80958408  0.60641166     0.09100
C1495       C  0.80419805  0.82988578  0.61645320     0.10100
S1496       S  0.79587245  0.79102137  0.63047661    -0.24600
H1497       H  0.82742447  0.77311892  0.62195259     0.20300
S1498       S  0.86832940  0.81742545  0.59590751    -0.30300
H1499       H  0.83692768  0.83529508  0.60476673     0.10700
C1500       C  0.80551724  0.84572428  0.62605874     0.03900
C1501       C  0.79214317  0.85843858  0.62455813    -0.12600
C1502       C  0.77727925  0.85559202  0.61382687    -0.08300
C1503       C  0.77583048  0.83937551  0.60466755     0.07300
C1504       C  0.78923115  0.82684419  0.60608768    -0.13400
S1505       S  0.82407825  0.84965308  0.64044663    -0.30300
H1506       H  0.79332574  0.87069437  0.63173528     0.11600
S1507       S  0.75781728  0.83401210  0.59015304    -0.27400
H1508       H  0.78824342  0.81476305  0.59855687     0.08800
H1509       H  0.86984224  0.80289159  0.58451353     0.27200
H1510       H  0.81741037  0.86497242  0.64843040     0.22000
H1511       H  0.75938275  0.84964491  0.58035887     0.27300
H1512       H  0.79126712  0.80693125  0.63873830     0.16200
C1513       C  0.86792959  0.70126585  0.67259599    -0.11100
C1514       C  0.87484285  0.68449252  0.66910817     0.15400
C1515       C  0.88157700  0.68078884  0.65219968     0.02300
C1516       C  0.88153342  0.69393791  0.63930151    -0.15500
C1517       C  0.87535441  0.71098929  0.64295486    -0.10300
C1518       C  0.86801073  0.71448866  0.65972549     0.09100
C1519       C  0.87542685  0.67129783  0.68346934     0.10100
S1520       S  0.89111753  0.65980522  0.64646505    -0.24600
H1521       H  0.88721698  0.69103452  0.62654435     0.20300
S1522       S  0.85817859  0.73531954  0.66542630    -0.30300
H1523       H  0.86251391  0.70408295  0.68549147     0.10700
C1524       C  0.88748660  0.67301587  0.69747307     0.03900
C1525       C  0.88835425  0.65988096  0.71039269    -0.12600
C1526       C  0.87765596  0.64481301  0.70950419    -0.08300
C1527       C  0.86535794  0.64326080  0.69555636     0.07300
C1528       C  0.86441843  0.65648169  0.68269796    -0.13400
S1529       S  0.90258402  0.69139107  0.69829031    -0.30300
H1530       H  0.89791713  0.66104286  0.72091799     0.11600
S1531       S  0.85031280  0.62502336  0.69356073    -0.27400
H1532       H  0.85510316  0.65519266  0.67194623     0.08800
H1533       H  0.85056294  0.73809597  0.64874603     0.27200
H1534       H  0.91117645  0.68657842  0.71399197     0.22000
H1535       H  0.84718377  0.62351294  0.71175516     0.27300
H1536       H  0.89829203  0.65615260  0.66314485     0.16200
C1537       C  0.87300592  0.75404880  0.51731898    -0.11100
C1538       C  0.88051022  0.73903154  0.50966482     0.15400
C1539       C  0.88706624  0.72550689  0.52059983     0.02300
C1540       C  0.88674574  0.72765817  0.53891765    -0.15500
C1541       C  0.87988375  0.74301338  0.54658774    -0.10300
C1542       C  0.87239157  0.75607218  0.53561874     0.09100
C1543       C  0.88245354  0.73850990  0.49029969     0.10100
S1544       S  0.89646557  0.70549953  0.51194022    -0.24600
H1545       H  0.89238280  0.71750208  0.54721525     0.20300
S1546       S  0.86160513  0.77543903  0.54414100    -0.30300
H1547       H  0.86774550  0.76434808  0.50894572     0.10700
C1548       C  0.86808446  0.73483124  0.47914357     0.03900
C1549       C  0.87038220  0.73554978  0.46081076    -0.12600
C1550       C  0.88677327  0.73997430  0.45345946    -0.08300
C1551       C  0.90133762  0.74280413  0.46475318     0.07300
C1552       C  0.89896409  0.74225611  0.48299911    -0.13400
S1553       S  0.84685245  0.72933540  0.48830722    -0.30300
H1554       H  0.85923896  0.73328916  0.45218783     0.11600
S1555       S  0.92335170  0.74671345  0.45675131    -0.27400
H1556       H  0.91007697  0.74479177  0.49161183     0.08800
H1557       H  0.85474560  0.76715336  0.55921982     0.27200
H1558       H  0.83826428  0.72621564  0.47218035     0.22000
H1559       H  0.92181134  0.73550168  0.44207599     0.27300
H1560       H  0.88626680  0.70499554  0.49648333     0.16200
C1561       C  0.97210158  0.74596730  0.61562752    -0.11100
C1562       C  0.97983559  0.76193340  0.61060625     0.15400
C1563       C  0.96894026  0.77630232  0.60606899     0.02300
C1564       C  0.95059821  0.77418373  0.60602855    -0.15500
C1565       C  0.94282016  0.75799676  0.61044791    -0.10300
C1566       C  0.95378902  0.74389316  0.61580662     0.09100
C1567       C  0.99924699  0.76263376  0.60893156     0.10100
S1568       S  0.97762693  0.79740856  0.59954026    -0.24600
H1569       H  0.94236615  0.78511403  0.60196675     0.20300
S1570       S  0.94532375  0.72301220  0.62327027    -0.30300
H1571       H  0.98043862  0.73496205  0.61926723     0.10700
C1572       C  0.01027529  0.76496250  0.62368362     0.03900
C1573       C  0.02865492  0.76454674  0.62149570    -0.12600
C1574       C  0.03619741  0.76152101  0.60487003    -0.08300
C1575       C  0.02501303  0.75965301  0.59005419     0.07300
C1576       C  0.00672872  0.76013527  0.59227415    -0.13400
S1577       S  0.00088423  0.76827083  0.64526538    -0.30300
H1578       H  0.03717702  0.76597284  0.63285051     0.11600
S1579       S  0.03318295  0.75694763  0.56792587    -0.27400
H1580       H  0.99822177  0.75845240  0.58092124     0.08800
H1581       H  0.93073393  0.73022937  0.63211988     0.27200
H1582       H  0.01693430  0.76930780  0.65448683     0.22000
H1583       H  0.04776959  0.76816119  0.57012490     0.27300
H1584       H  0.99339633  0.79630850  0.60918620     0.16200
C1585       C  0.17006989  0.40041560  0.80709396    -0.11100
C1586       C  0.16699645  0.38929890  0.82151613     0.15400
C1587       C  0.15089987  0.38000490  0.82246680     0.02300
C1588       C  0.13825672  0.38221564  0.80917692    -0.15500
C1589       C  0.14147720  0.39311154  0.79458235    -0.10300
C1590       C  0.15760686  0.40241026  0.79368123     0.09100
C1591       C  0.18043539  0.38865498  0.83574687     0.10100
S1592       S  0.14586985  0.36484667  0.84002585    -0.24600
H1593       H  0.12595933  0.37502822  0.81003799     0.20300
S1594       S  0.16279385  0.41779707  0.77636511    -0.30300
H1595       H  0.18218364  0.40794238  0.80648553     0.10700
C1596       C  0.19788317  0.38326394  0.83236001     0.03900
C1597       C  0.21056436  0.38446016  0.84574004    -0.12600
C1598       C  0.20629206  0.39091831  0.86254966    -0.08300
C1599       C  0.18868717  0.39607976  0.86596437     0.07300
C1600       C  0.17600623  0.39478414  0.85260344    -0.13400
S1601       S  0.20400062  0.37449906  0.81109581    -0.30300
H1602       H  0.22393425  0.38028876  0.84308248     0.11600
S1603       S  0.18169890  0.40546399  0.88659147    -0.27400
H1604       H  0.16268343  0.39921848  0.85517088     0.08800
H1605       H  0.14596414  0.42557214  0.77608881     0.27200
H1606       H  0.22212535  0.37271419  0.81453374     0.22000
H1607       H  0.19607386  0.41709883  0.88778990     0.27300
H1608       H  0.16336194  0.35953276  0.84304342     0.16200
C1609       C  0.22985081  0.39677836  0.02242188    -0.11100
C1610       C  0.23943667  0.38371507  0.01354224     0.15400
C1611       C  0.24918582  0.37131038  0.02338820     0.02300
C1612       C  0.25035905  0.37310010  0.04166784    -0.15500
C1613       C  0.24138856  0.38659754  0.05050303    -0.10300
C1614       C  0.23066584  0.39831745  0.04078377     0.09100
C1615       C  0.24105714  0.38480187  0.99413156     0.10100
S1616       S  0.26052390  0.35303647  0.01332862    -0.24600
H1617       H  0.25835520  0.36387300  0.04908081     0.20300
S1618       S  0.21882089  0.41627346  0.05082182    -0.30300
H1619       H  0.22242010  0.40639397  0.01492552     0.10700
C1620       C  0.22662430  0.38207841  0.98279924     0.03900
C1621       C  0.22895641  0.38377265  0.96452820    -0.12600
C1622       C  0.24547650  0.38807448  0.95728755    -0.08300
C1623       C  0.26003418  0.39023198  0.96882075     0.07300
C1624       C  0.25755843  0.38890679  0.98699766    -0.13400
S1625       S  0.20536504  0.37605513  0.99156998    -0.30300
H1626       H  0.21777766  0.38192529  0.95586199     0.11600
S1627       S  0.28225106  0.39405465  0.96141465    -0.27400
H1628       H  0.26870227  0.39087721  0.99572373     0.08800
H1629       H  0.23229292  0.42082445  0.06271105     0.27200
H1630       H  0.19622430  0.37609617  0.97544439     0.22000
H1631       H  0.28157691  0.38089078  0.94838393     0.27300
H1632       H  0.24911253  0.35150552  0.99879885     0.16200
C1633       C  0.26815656  0.51815011  0.10374943    -0.11100
C1634       C  0.25381471  0.50763105  0.10862576     0.15400
C1635       C  0.23763869  0.51565107  0.11300152     0.02300
C1636       C  0.23580182  0.53385393  0.11130483    -0.15500
C1637       C  0.24994303  0.54444450  0.10588423    -0.10300
C1638       C  0.26639174  0.53644085  0.10222544     0.09100
C1639       C  0.25549180  0.48829977  0.10749160     0.10100
S1640       S  0.21876968  0.50333084  0.12052077    -0.24600
H1641       H  0.22320504  0.53982119  0.11439144     0.20300
S1642       S  0.28522330  0.54853716  0.09437083    -0.30300
H1643       H  0.28056866  0.51198358  0.10033518     0.10700
C1644       C  0.24720276  0.47887626  0.09383541     0.03900
C1645       C  0.24769958  0.46047037  0.09396744    -0.12600
C1646       C  0.25624596  0.45119243  0.10752540    -0.08300
C1647       C  0.26475862  0.46075322  0.12109615     0.07300
C1648       C  0.26456246  0.47918981  0.12073829    -0.13400
S1649       S  0.23603182  0.49029912  0.07616890    -0.30300
H1650       H  0.24133925  0.45324988  0.08343714     0.11600
S1651       S  0.27486341  0.45036356  0.13988674    -0.27400
H1652       H  0.27077530  0.48649033  0.13131808     0.08800
H1653       H  0.27550733  0.55874372  0.08231865     0.27200
H1654       H  0.22819737  0.47536647  0.06850145     0.22000
H1655       H  0.26099631  0.43835605  0.14251884     0.27300
H1656       H  0.22836340  0.48970434  0.12859051     0.16200
C1657       C  0.18101549  0.62774014  0.83908468    -0.11100
C1658       C  0.18046732  0.61577888  0.82504853     0.15400
C1659       C  0.19396777  0.60308375  0.82343718     0.02300
C1660       C  0.20735103  0.60232393  0.83614179    -0.15500
C1661       C  0.20747980  0.61376496  0.85071133    -0.10300
C1662       C  0.19435854  0.62698966  0.85179617     0.09100
C1663       C  0.16559338  0.61685084  0.81241287     0.10100
S1664       S  0.19455098  0.58710117  0.80586931    -0.24600
H1665       H  0.21732645  0.59218153  0.83500438     0.20300
S1666       S  0.19404985  0.64362567  0.86870308    -0.30300
H1667       H  0.17091578  0.63777449  0.84012839     0.10700
C1668       C  0.14833618  0.61221902  0.81745874     0.03900
C1669       C  0.13470894  0.61273270  0.80496221    -0.12600
C1670       C  0.13794618  0.61774860  0.78745742    -0.08300
C1671       C  0.15511479  0.62333756  0.78273656     0.07300
C1672       C  0.16874480  0.62258792  0.79516405    -0.13400
S1673       S  0.14384824  0.60462833  0.83955405    -0.30300
H1674       H  0.12162839  0.60845057  0.80866113     0.11600
S1675       S  0.16043466  0.63202484  0.76129737    -0.27400
H1676       H  0.18191691  0.62658207  0.79140074     0.08800
H1677       H  0.21238880  0.64633460  0.86843845     0.27200
H1678       H  0.12551657  0.60279624  0.83756407     0.22000
H1679       H  0.14430006  0.64090687  0.75912495     0.27300
H1680       H  0.17620142  0.58538517  0.80405383     0.16200
C1681       C  0.24322482  0.51709370  0.88582039    -0.11100
C1682       C  0.25810786  0.50997449  0.89409195     0.15400
C1683       C  0.27126601  0.52137020  0.90065308     0.02300
C1684       C  0.26901101  0.53962878  0.89911444    -0.15500
C1685       C  0.25394203  0.54679562  0.89106272    -0.10300
C1686       C  0.24106448  0.53526902  0.88407460     0.09100
C1687       C  0.25911082  0.49060164  0.89570340     0.10100
S1688       S  0.29093410  0.51353221  0.91148188    -0.24600
H1689       H  0.27893182  0.54831004  0.90458942     0.20300
S1690       S  0.22181159  0.54278965  0.87234075    -0.30300
H1691       H  0.23319362  0.50835859  0.88062044     0.10700
C1692       C  0.25453432  0.48197897  0.91145977     0.03900
C1693       C  0.25353305  0.46355028  0.91172982    -0.12600
C1694       C  0.25690657  0.45353876  0.89653871    -0.08300
C1695       C  0.26164337  0.46227270  0.88079424     0.07300
C1696       C  0.26284011  0.48065672  0.88060996    -0.13400
S1697       S  0.24928683  0.49445411  0.93101463    -0.30300
H1698       H  0.24993382  0.45688095  0.92380015     0.11600
S1699       S  0.26497537  0.45094104  0.86021659    -0.27400
H1700       H  0.26601863  0.48733922  0.86840983     0.08800
H1701       H  0.23053555  0.55661306  0.86363165     0.27200
H1702       H  0.24481978  0.48001565  0.94171155     0.22000
H1703       H  0.25087726  0.43915105  0.86253709     0.27300
H1704       H  0.29159721  0.49701057  0.90320300     0.16200
C1705       C  0.24270151  0.61796755  0.97816029    -0.11100
C1706       C  0.23008045  0.60686195  0.98571897     0.15400
C1707       C  0.21856654  0.59726063  0.97468429     0.02300
C1708       C  0.22080336  0.59802315  0.95636977    -0.15500
C1709       C  0.23402881  0.60853209  0.94883989    -0.10300
C1710       C  0.24457867  0.61913497  0.95991626     0.09100
C1711       C  0.22991806  0.60522874  0.00512416     0.10100
S1712       S  0.20108167  0.58360963  0.98316694    -0.24600
H1713       H  0.21247289  0.59001754  0.94798572     0.20300
S1714       S  0.26029139  0.63479731  0.95154326    -0.30300
H1715       H  0.25125788  0.62571079  0.98657682     0.10700
C1716       C  0.23642447  0.59005316  0.01358787     0.03900
C1717       C  0.23759409  0.58974939  0.03200251    -0.12600
C1718       C  0.23258698  0.60437088  0.04219019    -0.08300
C1719       C  0.22608442  0.61957687  0.03358981     0.07300
C1720       C  0.22468943  0.61975734  0.01521847    -0.13400
S1721       S  0.24405506  0.57139297  0.00095046    -0.30300
H1722       H  0.24262365  0.57810013  0.03850460     0.11600
S1723       S  0.22046885  0.63956451  0.04505398    -0.27400
H1724       H  0.22002307  0.63154663  0.00866128     0.08800
H1725       H  0.24980096  0.63963124  0.93704592     0.27200
H1726       H  0.24802806  0.56041886  0.01533926     0.22000
H1727       H  0.23552888  0.63930932  0.05588426     0.27300
H1728       H  0.19858742  0.59299450  0.99892143     0.16200
C1729       C  0.16432078  0.59984406  0.19301235    -0.11100
C1730       C  0.15925857  0.60991542  0.17840317     0.15400
C1731       C  0.14213048  0.61714275  0.17778133     0.02300
C1732       C  0.13056578  0.61427335  0.19187756    -0.15500
C1733       C  0.13571559  0.60433649  0.20664378    -0.10300
C1734       C  0.15272761  0.59672046  0.20691820     0.09100
C1735       C  0.17177331  0.61106501  0.16352950     0.10100
S1736       S  0.13426200  0.63009409  0.15947376    -0.24600
H1737       H  0.11752409  0.62006103  0.19141125     0.20300
S1738       S  0.16006769  0.58179519  0.22386931    -0.30300
H1739       H  0.17725272  0.59378212  0.19325130     0.10700
C1740       C  0.18793876  0.62000939  0.16523557     0.03900
C1741       C  0.20069010  0.61832260  0.15200472    -0.12600
C1742       C  0.19757967  0.60795309  0.13700347    -0.08300
C1743       C  0.18109988  0.59940737  0.13513700     0.07300
C1744       C  0.16835683  0.60122713  0.14830241    -0.13400
S1745       S  0.19234552  0.63350073  0.18432409    -0.30300
H1746       H  0.21321709  0.62498649  0.15342156     0.11600
S1747       S  0.17600105  0.58479116  0.11714436    -0.27400
H1748       H  0.15602379  0.59413346  0.14712680     0.08800
H1749       H  0.14391169  0.57278058  0.22503080     0.27200
H1750       H  0.20827867  0.64072211  0.17824385     0.22000
H1751       H  0.19240280  0.57615527  0.11757731     0.27300
H1752       H  0.15081815  0.63629784  0.15401663     0.16200
C1753       C  0.11096759  0.69371112  0.32678640    -0.11100
C1754       C  0.10542023  0.67676854  0.33161796     0.15400
C1755       C  0.10061590  0.67349559  0.34926490     0.02300
C1756       C  0.10102422  0.68724827  0.36152024    -0.15500
C1757       C  0.10557933  0.70445765  0.35650267    -0.10300
C1758       C  0.11104068  0.70761427  0.33896853     0.09100
C1759       C  0.10476707  0.66284796  0.31792151     0.10100
S1760       S  0.09308967  0.65228423  0.35680456    -0.24600
H1761       H  0.09687122  0.68463556  0.37491620     0.20300
S1762       S  0.11863104  0.72908271  0.33202346    -0.30300
H1763       H  0.11503831  0.69602476  0.31332177     0.10700
C1764       C  0.09287024  0.66391685  0.30368736     0.03900
C1765       C  0.09289359  0.65071055  0.29079081    -0.12600
C1766       C  0.10443488  0.63627516  0.29183263    -0.08300
C1767       C  0.11630723  0.63522477  0.30619839     0.07300
C1768       C  0.11630131  0.64846340  0.31905242    -0.13400
S1769       S  0.07707723  0.68167953  0.30232840    -0.30300
H1770       H  0.08356727  0.65143131  0.28000943     0.11600
S1771       S  0.13223256  0.61780202  0.30860225    -0.27400
H1772       H  0.12554188  0.64769164  0.32992195     0.08800
H1773       H  0.12254711  0.72459122  0.31449014     0.27200
H1774       H  0.07022828  0.67732312  0.28566751     0.22000
H1775       H  0.13678110  0.61741779  0.29065041     0.27300
H1776       H  0.08443678  0.64761925  0.34109985     0.16200
C1777       C  0.89087493  0.69855000  0.32687699    -0.11100
C1778       C  0.88269875  0.68248556  0.33078538     0.15400
C1779       C  0.87464774  0.68025306  0.34738782     0.02300
C1780       C  0.87529219  0.69394142  0.35975900    -0.15500
C1781       C  0.88330602  0.71016812  0.35580613    -0.10300
C1782       C  0.89098125  0.71244455  0.33894662     0.09100
C1783       C  0.88335314  0.66827060  0.31738305     0.10100
S1784       S  0.86322806  0.66036805  0.35351645    -0.24600
H1785       H  0.86928962  0.69193601  0.37254278     0.20300
S1786       S  0.90194057  0.73233425  0.33220542    -0.30300
H1787       H  0.89724862  0.70027983  0.31422617     0.10700
C1788       C  0.87521809  0.67028421  0.30079642     0.03900
C1789       C  0.87729151  0.65716842  0.28796488    -0.12600
C1790       C  0.88699801  0.64182241  0.29145070    -0.08300
C1791       C  0.89499977  0.63976117  0.30818453     0.07300
C1792       C  0.89303688  0.65294294  0.32093500    -0.13400
S1793       S  0.86166879  0.68929239  0.29615715    -0.30300
H1794       H  0.87106521  0.65872990  0.27522459     0.11600
S1795       S  0.90863326  0.62115093  0.31381405    -0.27400
H1796       H  0.89948749  0.65145997  0.33359065     0.08800
H1797       H  0.88638184  0.74237877  0.33309270     0.27200
H1798       H  0.85575957  0.68381526  0.27947126     0.22000
H1799       H  0.91714930  0.62039509  0.29738041     0.27300
H1800       H  0.85742133  0.65611219  0.33644812     0.16200
C1801       C  0.97640960  0.60228160  0.22688256    -0.11100
C1802       C  0.98622833  0.60420777  0.24240745     0.15400
C1803       C  0.97743080  0.60717792  0.25849182     0.02300
C1804       C  0.95904650  0.60716033  0.25885246    -0.15500
C1805       C  0.94909175  0.60464988  0.24344644    -0.10300
C1806       C  0.95795860  0.60234201  0.22722434     0.09100
C1807       C  0.00554095  0.60205001  0.24168394     0.10100
S1808       S  0.98883876  0.61074362  0.27907021    -0.24600
H1809       H  0.95243861  0.60919914  0.27133803     0.20300
S1810       S  0.94664939  0.59823423  0.20676355    -0.30300
H1811       H  0.98317610  0.59999897  0.21452680     0.10700
C1812       C  0.01373017  0.58673101  0.24819604     0.03900
C1813       C  0.03215309  0.58592097  0.24896428    -0.12600
C1814       C  0.04257266  0.60005515  0.24316230    -0.08300
C1815       C  0.03425431  0.61516760  0.23610105     0.07300
C1816       C  0.01585603  0.61589438  0.23524375    -0.13400
S1817       S  0.00070299  0.56826683  0.25561366    -0.30300
H1818       H  0.03848577  0.57426871  0.25422007     0.11600
S1819       S  0.04620637  0.63445481  0.22921036    -0.27400
H1820       H  0.00950159  0.62767166  0.23027463     0.08800
H1821       H  0.93464780  0.58616217  0.21405962     0.27200
H1822       H  0.01481086  0.55646390  0.25787197     0.22000
H1823       H  0.05779313  0.63435415  0.24369548     0.27300
H1824       H  0.00431296  0.61784546  0.27185177     0.16200
C1825       C  0.88223491  0.34659977  0.32765408    -0.11100
C1826       C  0.89154245  0.33083050  0.32544173     0.15400
C1827       C  0.90097195  0.32793804  0.30971569     0.02300
C1828       C  0.90096818  0.34088957  0.29660646    -0.15500
C1829       C  0.89211472  0.35698072  0.29898341    -0.10300
C1830       C  0.88227748  0.35960376  0.31460071     0.09100
C1831       C  0.89088858  0.31753187  0.33964655     0.10100
S1832       S  0.91367437  0.30825010  0.30583830    -0.24600
H1833       H  0.90855993  0.33863552  0.28474268     0.20300
S1834       S  0.86898982  0.37887040  0.31848636    -0.30300
H1835       H  0.87473135  0.34870331  0.33960524     0.10700
C1836       C  0.90081585  0.31957825  0.35519828     0.03900
C1837       C  0.89995620  0.30659853  0.36830394    -0.12600
C1838       C  0.88947779  0.29152723  0.36609731    -0.08300
C1839       C  0.87920242  0.28976022  0.35065055     0.07300
C1840       C  0.88013653  0.30268619  0.33754770    -0.13400
S1841       S  0.91520424  0.33831493  0.35795496    -0.30300
H1842       H  0.90794701  0.30787842  0.38005823     0.11600
S1843       S  0.86421340  0.27169602  0.34717208    -0.27400
H1844       H  0.87231453  0.30126113  0.32568191     0.08800
H1845       H  0.86263507  0.37985166  0.30109275     0.27200
H1846       H  0.92205609  0.33344222  0.37447159     0.22000
H1847       H  0.85931478  0.27025154  0.36497181     0.27300
H1848       H  0.91872867  0.30563003  0.32346192     0.16200
C1849       C  0.90056118  0.48410233  0.27130410    -0.11100
C1850       C  0.88351462  0.49045231  0.26824001     0.15400
C1851       C  0.86953099  0.47839113  0.26604915     0.02300
C1852       C  0.87307449  0.46026962  0.26623909    -0.15500
C1853       C  0.89032997  0.45393046  0.26841218    -0.10300
C1854       C  0.90409934  0.46606041  0.27151452     0.09100
C1855       C  0.88141935  0.50959940  0.26540417     0.10100
S1856       S  0.84712435  0.48527708  0.26215580    -0.24600
H1857       H  0.86240270  0.45108310  0.26390123     0.20300
S1858       S  0.92647095  0.45946881  0.27581022    -0.30300
H1859       H  0.91130931  0.49333262  0.27307496     0.10700
C1860       C  0.88212013  0.52166910  0.27945923     0.03900
C1861       C  0.88256014  0.53979098  0.27584820    -0.12600
C1862       C  0.88257078  0.54607955  0.25842767    -0.08300
C1863       C  0.88103063  0.53386862  0.24441635     0.07300
C1864       C  0.88058978  0.51582953  0.24806872    -0.13400
S1865       S  0.88284051  0.51394121  0.30193716    -0.30300
H1866       H  0.88363735  0.54906736  0.28661711     0.11600
S1867       S  0.87947824  0.54033420  0.22162295    -0.27400
H1868       H  0.87998150  0.50651546  0.23726995     0.08800
H1869       H  0.92206574  0.44373475  0.28451671     0.27200
H1870       H  0.88348687  0.53061713  0.30996576     0.22000
H1871       H  0.86903018  0.55528496  0.22487707     0.27300
H1872       H  0.84851778  0.50174499  0.27047303     0.16200
C1873       C  0.12456522  0.32137048  0.30574226    -0.11100
C1874       C  0.11924174  0.32554600  0.32289690     0.15400
C1875       C  0.11464205  0.34306861  0.32701103     0.02300
C1876       C  0.11445957  0.35577672  0.31365565    -0.15500
C1877       C  0.11892620  0.35145454  0.29622333    -0.10300
C1878       C  0.12468398  0.33413349  0.29244590     0.09100
C1879       C  0.11697240  0.31103850  0.33567334     0.10100
S1880       S  0.10789670  0.34981135  0.34876701    -0.24600
H1881       H  0.11012481  0.36899840  0.31679974     0.20300
S1882       S  0.13247372  0.32746802  0.27104870    -0.30300
H1883       H  0.12832480  0.30796532  0.30261679     0.10700
C1884       C  0.10040933  0.30304913  0.33803438     0.03900
C1885       C  0.09866072  0.28920738  0.35009565    -0.12600
C1886       C  0.11311076  0.28326009  0.36000560    -0.08300
C1887       C  0.12981488  0.29108493  0.35732925     0.07300
C1888       C  0.13154558  0.30491173  0.34523356    -0.13400
S1889       S  0.08148735  0.31050348  0.32564377    -0.30300
H1890       H  0.08588243  0.28320936  0.35209139     0.11600
S1891       S  0.14949114  0.28362240  0.36835601    -0.27400
H1892       H  0.14433716  0.31089572  0.34318224     0.08800
H1893       H  0.14090834  0.34354180  0.26735649     0.27200
H1894       H  0.06906653  0.29934744  0.33364413     0.22000
H1895       H  0.14490072  0.26568284  0.36802613     0.27300
H1896       H  0.11742194  0.33697132  0.35808283     0.16200
C1897       C  0.19620414  0.39732306  0.17311582    -0.11100
C1898       C  0.18614548  0.38185793  0.17381934     0.15400
C1899       C  0.18886181  0.36867718  0.16099105     0.02300
C1900       C  0.20157679  0.37122694  0.14786402    -0.15500
C1901       C  0.21192967  0.38655315  0.14738108    -0.10300
C1902       C  0.20889448  0.39988923  0.16004397     0.09100
C1903       C  0.17242530  0.38043623  0.18763722     0.10100
S1904       S  0.17679054  0.34823515  0.16082215    -0.24600
H1905       H  0.20368648  0.36095646  0.13819108     0.20300
S1906       S  0.21997059  0.42089307  0.15973794    -0.30300
H1907       H  0.19385592  0.40767580  0.18265476     0.10700
C1908       C  0.17695588  0.37989469  0.20562577     0.03900
C1909       C  0.16363043  0.38050466  0.21836547    -0.12600
C1910       C  0.14576655  0.38169505  0.21359269    -0.08300
C1911       C  0.14126294  0.38174171  0.19547293     0.07300
C1912       C  0.15460658  0.38097200  0.18275849    -0.13400
S1913       S  0.19974003  0.37833148  0.21238389    -0.30300
H1914       H  0.16717561  0.38023722  0.23217552     0.11600
S1915       S  0.11897988  0.38401832  0.18761078    -0.27400
H1916       H  0.15111753  0.38155244  0.16892512     0.08800
H1917       H  0.21915369  0.42283984  0.14132154     0.27200
H1918       H  0.19671196  0.37858176  0.23065221     0.22000
H1919       H  0.11498423  0.39819754  0.19884633     0.27300
H1920       H  0.17407266  0.34732977  0.17910776     0.16200
C1921       C  0.98670894  0.40437795  0.26115744    -0.11100
C1922       C  0.99392245  0.39029492  0.25170808     0.15400
C1923       C  0.98260373  0.37836054  0.24303140     0.02300
C1924       C  0.96435345  0.38101754  0.24368623    -0.15500
C1925       C  0.95707442  0.39498790  0.25336778    -0.10300
C1926       C  0.96850402  0.40692242  0.26198774     0.09100
C1927       C  0.01330708  0.38853586  0.25130869     0.10100
S1928       S  0.99056692  0.35926431  0.23137709    -0.24600
H1929       H  0.95574328  0.37167850  0.23717600     0.20300
S1930       S  0.96080026  0.42607926  0.27360065    -0.30300
H1931       H  0.99538042  0.41361743  0.26774109     0.10700
C1932       C  0.02320954  0.39283652  0.23622919     0.03900
C1933       C  0.04167294  0.39180567  0.23690762    -0.12600
C1934       C  0.05039939  0.38669131  0.25242861    -0.08300
C1935       C  0.04028747  0.38177354  0.26729272     0.07300
C1936       C  0.02194497  0.38303875  0.26664438    -0.13400
S1937       S  0.01237300  0.40047671  0.21646150    -0.30300
H1938       H  0.04935638  0.39562835  0.22553527     0.11600
S1939       S  0.04985621  0.37326879  0.28731248    -0.27400
H1940       H  0.01428295  0.37954498  0.27816074     0.08800
H1941       H  0.94745696  0.42982055  0.26128759     0.27200
H1942       H  0.02766407  0.40231392  0.20618627     0.22000
H1943       H  0.06296468  0.36337648  0.27872827     0.27300
H1944       H  0.00578178  0.35671911  0.24163186     0.16200
C1945       C  0.09470290  0.51113662  0.26459680    -0.11100
C1946       C  0.11163507  0.50381791  0.26357113     0.15400
C1947       C  0.12632405  0.51506640  0.26162495     0.02300
C1948       C  0.12370113  0.53324878  0.26007286    -0.15500
C1949       C  0.10671152  0.54050585  0.26065060    -0.10300
C1950       C  0.09211866  0.52931832  0.26348873     0.09100
C1951       C  0.11332930  0.48439516  0.26334961     0.10100
S1952       S  0.14866063  0.50701302  0.26083165    -0.24600
H1953       H  0.13497410  0.54175415  0.25802135     0.20300
S1954       S  0.06995569  0.53744191  0.26624020    -0.30300
H1955       H  0.08339334  0.50258234  0.26620763     0.10700
C1956       C  0.10877516  0.47403017  0.27806372     0.03900
C1957       C  0.10927465  0.45560645  0.27670309    -0.12600
C1958       C  0.11425575  0.44737173  0.26092275    -0.08300
C1959       C  0.11980990  0.45783546  0.24657083     0.07300
C1960       C  0.11897754  0.47616993  0.24782853    -0.13400
S1961       S  0.10239320  0.48426364  0.29856159    -0.30300
H1962       H  0.10522052  0.44758508  0.28776072     0.11600
S1963       S  0.12857979  0.44862872  0.22651727    -0.27400
H1964       H  0.12275114  0.48412128  0.23660076     0.08800
H1965       H  0.07488508  0.55294632  0.27510602     0.27200
H1966       H  0.09946074  0.46861539  0.30801221     0.22000
H1967       H  0.13683971  0.43420138  0.23471988     0.27300
H1968       H  0.14580989  0.49222399  0.27158978     0.16200
C1969       C  0.62032222  0.19798229  0.83344996    -0.11100
C1970       C  0.61561956  0.18093696  0.83881937     0.15400
C1971       C  0.61223602  0.17776305  0.85683336     0.02300
C1972       C  0.61276502  0.19175351  0.86879948    -0.15500
C1973       C  0.61614513  0.20906779  0.86322915    -0.10300
C1974       C  0.62067207  0.21202089  0.84539259     0.09100
C1975       C  0.61379043  0.16693765  0.82528868     0.10100
S1976       S  0.60618120  0.15642285  0.86530847    -0.24600
H1977       H  0.60944167  0.18920039  0.88243572     0.20300
S1978       S  0.62723087  0.23322620  0.83702813    -0.30300
H1979       H  0.62347792  0.20040811  0.81974573     0.10700
C1980       C  0.60091921  0.16815895  0.81194338     0.03900
C1981       C  0.59931632  0.15457460  0.79958416    -0.12600
C1982       C  0.60988593  0.13936834  0.80044071    -0.08300
C1983       C  0.62233576  0.13792774  0.81432018     0.07300
C1984       C  0.62449951  0.15190773  0.82617610    -0.13400
S1985       S  0.58595710  0.18667482  0.81098595    -0.30300
H1986       H  0.58960811  0.15582531  0.78921420     0.11600
S1987       S  0.63530622  0.11847713  0.81826382    -0.27400
H1988       H  0.63422692  0.15081973  0.83658091     0.08800
H1989       H  0.63678278  0.23793472  0.85220645     0.27200
H1990       H  0.57605158  0.18094898  0.79640569     0.22000
H1991       H  0.62069040  0.10710352  0.81741897     0.27300
H1992       H  0.59621587  0.15126694  0.85056604     0.16200
C1993       C  0.61897437  0.25388113  0.98688725    -0.11100
C1994       C  0.61109180  0.23912401  0.99469866     0.15400
C1995       C  0.60307711  0.22630798  0.98386783     0.02300
C1996       C  0.60262492  0.22878657  0.96560129    -0.15500
C1997       C  0.61013727  0.24374919  0.95778562    -0.10300
C1998       C  0.61878541  0.25622500  0.96859250     0.09100
C1999       C  0.61038890  0.23812801  0.01418148     0.10100
S2000       S  0.59299102  0.20666579  0.99257043    -0.24600
H2001       H  0.59605766  0.21908860  0.95744260     0.20300
S2002       S  0.63020228  0.27512643  0.95988123    -0.30300
H2003       H  0.62525667  0.26369050  0.99513976     0.10700
C2004       C  0.62551479  0.23461749  0.02437612     0.03900
C2005       C  0.62431940  0.23479086  0.04284143    -0.12600
C2006       C  0.60827910  0.23841807  0.05134085    -0.08300
C2007       C  0.59297741  0.24108775  0.04098237     0.07300
C2008       C  0.59425986  0.24113500  0.02260309    -0.13400
S2009       S  0.64630734  0.22990376  0.01385502    -0.30300
H2010       H  0.63604792  0.23266472  0.05068830     0.11600
S2011       S  0.57134854  0.24404914  0.05030797    -0.27400
H2012       H  0.58256184  0.24353466  0.01475737     0.08800
H2013       H  0.63633306  0.26659332  0.94462766     0.27200
H2014       H  0.65585917  0.22639306  0.02935065     0.22000
H2015       H  0.57395882  0.23206296  0.06419920     0.27300
H2016       H  0.60407539  0.20510884  0.00733534     0.16200
C2017       C  0.35279961  0.32331258  0.11090993    -0.11100
C2018       C  0.33740611  0.32014990  0.12058296     0.15400
C2019       C  0.33557056  0.30404800  0.12967947     0.02300
C2020       C  0.34875911  0.29123557  0.12831173    -0.15500
C2021       C  0.36406476  0.29423804  0.11838246    -0.10300
C2022       C  0.36606419  0.31057733  0.10962879     0.09100
C2023       C  0.32269865  0.33291939  0.11912592     0.10100
S2024       S  0.31669192  0.29908652  0.14318333    -0.24600
H2025       H  0.34709760  0.27883498  0.13516714     0.20300
S2026       S  0.38446881  0.31557454  0.09551820    -0.30300
H2027       H  0.35412046  0.33551039  0.10362627     0.10700
C2028       C  0.32387348  0.35012585  0.12597222     0.03900
C2029       C  0.30979178  0.36188845  0.12348501    -0.12600
C2030       C  0.29458841  0.35684109  0.11415691    -0.08300
C2031       C  0.29378263  0.33970012  0.10686016     0.07300
C2032       C  0.30763230  0.32791011  0.10970787    -0.13400
S2033       S  0.34309268  0.35693582  0.13824950    -0.30300
H2034       H  0.31053905  0.37500906  0.12899502     0.11600
S2035       S  0.27612494  0.33237131  0.09275353    -0.27400
H2036       H  0.30694022  0.31484771  0.10400331     0.08800
H2037       H  0.38502271  0.29884509  0.08763498     0.27200
H2038       H  0.33750927  0.37426879  0.14160750     0.22000
H2039       H  0.27510311  0.34825010  0.08324617     0.27300
H2040       H  0.31312827  0.31660675  0.14798915     0.16200
C2041       C  0.52472661  0.24656583  0.13035843    -0.11100
C2042       C  0.51607642  0.25897744  0.11978020     0.15400
C2043       C  0.52610161  0.27054510  0.10925060     0.02300
C2044       C  0.54446007  0.26885190  0.10883849    -0.15500
C2045       C  0.55311133  0.25587502  0.11878249    -0.10300
C2046       C  0.54309752  0.24498442  0.13010259     0.09100
C2047       C  0.49662551  0.25835052  0.11872664     0.10100
S2048       S  0.51617819  0.28705824  0.09534651    -0.24600
H2049       H  0.55198052  0.27729078  0.10014106     0.20300
S2050       S  0.55291051  0.22888605  0.14456371    -0.30300
H2051       H  0.51706470  0.23777424  0.13857364     0.10700
C2052       C  0.48817369  0.24981756  0.10460855     0.03900
C2053       C  0.46974386  0.24921646  0.10405967    -0.12600
C2054       C  0.45943544  0.25670882  0.11749851    -0.08300
C2055       C  0.46805925  0.26484414  0.13193678     0.07300
C2056       C  0.48651263  0.26574824  0.13226727    -0.13400
S2057       S  0.50090256  0.23927949  0.08748814    -0.30300
H2058       H  0.46332537  0.24284589  0.09303623     0.11600
S2059       S  0.45649130  0.27343072  0.15076276    -0.27400
H2060       H  0.49307237  0.27197643  0.14331548     0.08800
H2061       H  0.56812978  0.23883138  0.14816670     0.27200
H2062       H  0.48656097  0.23317305  0.07745978     0.22000
H2063       H  0.44506015  0.25891561  0.15213840     0.27300
H2064       H  0.50121000  0.28984871  0.10585372     0.16200
C2065       C  0.29985851  0.32735506  0.88502707    -0.11100
C2066       C  0.31679488  0.33167890  0.89103652     0.15400
C2067       C  0.32053093  0.34922388  0.89584183     0.02300
C2068       C  0.30721270  0.36191748  0.89495288    -0.15500
C2069       C  0.28997970  0.35746053  0.88985534    -0.10300
C2070       C  0.28646504  0.34001482  0.88429435     0.09100
C2071       C  0.33020750  0.31758801  0.89240194     0.10100
S2072       S  0.34175479  0.35608125  0.90405411    -0.24600
H2073       H  0.31013590  0.37519730  0.89926529     0.20300
S2074       S  0.26536983  0.33308376  0.87585823    -0.30300
H2075       H  0.29704418  0.31396267  0.88098451     0.10700
C2076       C  0.32887419  0.30433944  0.90531025     0.03900
C2077       C  0.34195859  0.29136448  0.90640173    -0.12600
C2078       C  0.35655415  0.29145830  0.89502934    -0.08300
C2079       C  0.35772432  0.30469905  0.88196423     0.07300
C2080       C  0.34461575  0.31763537  0.88087131    -0.13400
S2081       S  0.31098733  0.30448586  0.92099881    -0.30300
H2082       H  0.34106388  0.28135277  0.91650459     0.11600
S2083       S  0.37518489  0.30552789  0.86593707    -0.27400
H2084       H  0.34556828  0.32777201  0.87087459     0.08800
H2085       H  0.26185955  0.34899633  0.86703619     0.27200
H2086       H  0.31596124  0.28919804  0.93019714     0.22000
H2087       H  0.37558246  0.28722214  0.86312359     0.27300
H2088       H  0.34570940  0.34028847  0.91286521     0.16200
C2089       C  0.37801562  0.20126285  0.83406612    -0.11100
C2090       C  0.38510083  0.18450513  0.83723956     0.15400
C2091       C  0.39195644  0.18059700  0.85410731     0.02300
C2092       C  0.39157851  0.19344334  0.86731251    -0.15500
C2093       C  0.38514605  0.21046041  0.86398514    -0.10300
C2094       C  0.37779491  0.21418535  0.84723120     0.09100
C2095       C  0.38589149  0.17171297  0.82249254     0.10100
S2096       S  0.40226181  0.15985191  0.85941287    -0.24600
H2097       H  0.39733810  0.19039443  0.88001805     0.20300
S2098       S  0.36763192  0.23495849  0.84185422    -0.30300
H2099       H  0.37261375  0.20429102  0.82119495     0.10700
C2100       C  0.37589420  0.15607946  0.82242361     0.03900
C2101       C  0.37813125  0.14388993  0.80868626    -0.12600
C2102       C  0.38998026  0.14709190  0.79482332    -0.08300
C2103       C  0.39976742  0.16298071  0.79487313     0.07300
C2104       C  0.39743147  0.17512961  0.80852319    -0.13400
S2105       S  0.36003330  0.15183057  0.83961605    -0.30300
H2106       H  0.37048160  0.13186661  0.80865221     0.11600
S2107       S  0.41622866  0.16818396  0.77860495    -0.27400
H2108       H  0.40517644  0.18711645  0.80860299     0.08800
H2109       H  0.36003886  0.23736515  0.85857930     0.27200
H2110       H  0.35349607  0.13594547  0.83269532     0.22000
H2111       H  0.42365655  0.15121707  0.77854704     0.27300
H2112       H  0.40917670  0.15662809  0.84255993     0.16200
C2113       C  0.40875656  0.24804130  0.98940318    -0.11100
C2114       C  0.39291676  0.24384475  0.99787078     0.15400
C2115       C  0.37776481  0.24030083  0.98765226     0.02300
C2116       C  0.37880247  0.24107740  0.96922762    -0.15500
C2117       C  0.39462944  0.24546508  0.96073139    -0.10300
C2118       C  0.40982014  0.24879432  0.97103008     0.09100
C2119       C  0.39259462  0.24407570  0.01736712     0.10100
S2120       S  0.35666442  0.23522063  0.99729728    -0.24600
H2121       H  0.36706163  0.23861477  0.96147477     0.20300
S2122       S  0.43105506  0.25369218  0.96158816    -0.30300
H2123       H  0.42040640  0.25076796  0.99721242     0.10700
C2124       C  0.39982979  0.23020758  0.02735986     0.03900
C2125       C  0.40034924  0.23155400  0.04580243    -0.12600
C2126       C  0.39380951  0.24653845  0.05445291    -0.08300
C2127       C  0.38579275  0.26002346  0.04436219     0.07300
C2128       C  0.38549288  0.25874424  0.02597870    -0.13400
S2129       S  0.40844479  0.21085169  0.01657815    -0.30300
H2130       H  0.40636699  0.22115253  0.05348152     0.11600
S2131       S  0.37522209  0.27891758  0.05408494    -0.27400
H2132       H  0.37967096  0.26927322  0.01829219     0.08800
H2133       H  0.42931349  0.24200952  0.94731262     0.27200
H2134       H  0.41298945  0.20161749  0.03198611     0.22000
H2135       H  0.36867878  0.26981307  0.06882816     0.27300
H2136       H  0.36317297  0.22759790  0.01285883     0.16200
C2137       C  0.51918282  0.27197305  0.89928458    -0.11100
C2138       C  0.50996779  0.25752674  0.89242093     0.15400
C2139       C  0.51947851  0.24304052  0.88571661     0.02300
C2140       C  0.53786256  0.24287304  0.88695160    -0.15500
C2141       C  0.54716297  0.25699562  0.89447751    -0.10300
C2142       C  0.53761127  0.27182525  0.90053056     0.09100
C2143       C  0.49053408  0.25710295  0.89412011     0.10100
S2144       S  0.50891697  0.22412015  0.87596583    -0.24600
H2145       H  0.54497404  0.23151589  0.88204596     0.20300
S2146       S  0.54790151  0.29031343  0.91125096    -0.30300
H2147       H  0.51190377  0.28305975  0.90454786     0.10700
C2148       C  0.48239673  0.24711017  0.90744113     0.03900
C2149       C  0.46396554  0.24630521  0.90822721    -0.12600
C2150       C  0.45336643  0.25557343  0.89617304    -0.08300
C2151       C  0.46164644  0.26587885  0.88301510     0.07300
C2152       C  0.48009415  0.26664232  0.88224577    -0.13400
S2153       S  0.49551630  0.23568549  0.92370659    -0.30300
H2154       H  0.45776600  0.23857860  0.91847088     0.11600
S2155       S  0.44956381  0.27769203  0.86635485    -0.27400
H2156       H  0.48637763  0.27435739  0.87202789     0.08800
H2157       H  0.55881115  0.27988935  0.92202956     0.27200
H2158       H  0.48145461  0.23044293  0.93455041     0.22000
H2159       H  0.43749145  0.26398571  0.86323739     0.27300
H2160       H  0.49380980  0.23298517  0.86996421     0.16200
C2161       C  0.34278251  0.88599366  0.31991651    -0.11100
C2162       C  0.32624315  0.87902755  0.31555617     0.15400
C2163       C  0.32292478  0.87389220  0.29796723     0.02300
C2164       C  0.33594014  0.87639106  0.28511450    -0.15500
C2165       C  0.35240249  0.88369507  0.28941726    -0.10300
C2166       C  0.35576574  0.88853831  0.30710392     0.09100
C2167       C  0.31210218  0.87973703  0.32904563     0.10100
S2168       S  0.30233456  0.86421371  0.29109537    -0.24600
H2169       H  0.33321752  0.87250288  0.27165042     0.20300
S2170       S  0.37570605  0.89944179  0.31397486    -0.30300
H2171       H  0.34526559  0.89036951  0.33327812     0.10700
C2172       C  0.31282621  0.86977578  0.34471485     0.03900
C2173       C  0.29968164  0.87202954  0.35758235    -0.12600
C2174       C  0.28589232  0.88417393  0.35516565    -0.08300
C2175       C  0.28561201  0.89448973  0.33963756     0.07300
C2176       C  0.29843742  0.89191117  0.32669853    -0.13400
S2177       S  0.33022989  0.85391770  0.34811717    -0.30300
H2178       H  0.30002562  0.86417438  0.36947299     0.11600
S2179       S  0.27011636  0.91212630  0.33605721    -0.27400
H2180       H  0.29818830  0.90001108  0.31494836     0.08800
H2181       H  0.37644080  0.91067205  0.29925197     0.27200
H2182       H  0.32570843  0.84944070  0.36550823     0.22000
H2183       H  0.27077808  0.91832553  0.35351707     0.27300
H2184       H  0.29797858  0.85692077  0.30754061     0.16200
C2185       C  0.32465496  0.10607596  0.30513616    -0.11100
C2186       C  0.32878782  0.11557315  0.32042518     0.15400
C2187       C  0.34561436  0.12337731  0.32196999     0.02300
C2188       C  0.35801434  0.12101857  0.30852355    -0.15500
C2189       C  0.35401180  0.11119876  0.29334166    -0.10300
C2190       C  0.33701157  0.10368732  0.29171415     0.09100
C2191       C  0.31614159  0.11491757  0.33530397     0.10100
S2192       S  0.35213466  0.13633436  0.34079379    -0.24600
H2193       H  0.37092757  0.12693134  0.30994781     0.20300
S2194       S  0.33062211  0.08963093  0.27369045    -0.30300
H2195       H  0.31195025  0.09964735  0.30406426     0.10700
C2196       C  0.29876354  0.12132460  0.33372608     0.03900
C2197       C  0.28672483  0.11840939  0.34743868    -0.12600
C2198       C  0.29165781  0.10920220  0.36272794    -0.08300
C2199       C  0.30912259  0.10287024  0.36424617     0.07300
C2200       C  0.32115147  0.10598234  0.35067543    -0.13400
S2201       S  0.29193609  0.13333467  0.31434151    -0.30300
H2202       H  0.27338213  0.12331099  0.34625276     0.11600
S2203       S  0.31655658  0.08948374  0.38238846    -0.27400
H2204       H  0.33435182  0.10063803  0.35173637     0.08800
H2205       H  0.34625191  0.07966333  0.27408622     0.27200
H2206       H  0.27468874  0.13706943  0.31997091     0.22000
H2207       H  0.30119712  0.07912848  0.38298634     0.27300
H2208       H  0.33507770  0.14189045  0.34537791     0.16200
C2209       C  0.37800341  0.15306428  0.18549025    -0.11100
C2210       C  0.39035430  0.16679778  0.18605547     0.15400
C2211       C  0.40265211  0.16737973  0.20000299     0.02300
C2212       C  0.40215764  0.15449887  0.21313889    -0.15500
C2213       C  0.38980439  0.14072502  0.21270235    -0.10300
C2214       C  0.37749787  0.14013439  0.19867367     0.09100
C2215       C  0.38955943  0.18091981  0.17258294     0.10100
S2216       S  0.41938642  0.18416454  0.20179874    -0.24600
H2217       H  0.41180198  0.15508621  0.22366002     0.20300
S2218       S  0.36024632  0.12391626  0.19729073    -0.30300
H2219       H  0.36837117  0.15270774  0.17494740     0.10700
C2220       C  0.39465747  0.17793412  0.15500303     0.03900
C2221       C  0.39509561  0.19210331  0.14312921    -0.12600
C2222       C  0.39058344  0.20926996  0.14844434    -0.08300
C2223       C  0.38456155  0.21195661  0.16588490     0.07300
C2224       C  0.38428413  0.19783996  0.17773317    -0.13400
S2225       S  0.40168472  0.15633350  0.14796528    -0.30300
H2226       H  0.39970866  0.18991609  0.12982529     0.11600
S2227       S  0.37674354  0.23289499  0.17382803    -0.27400
H2228       H  0.38003128  0.20007005  0.19117045     0.08800
H2229       H  0.35614379  0.12460685  0.21534609     0.27200
H2230       H  0.40420144  0.16055151  0.13010751     0.22000
H2231       H  0.36809013  0.23738199  0.15805103     0.27300
H2232       H  0.42131770  0.18714105  0.18363437     0.16200
C2233       C  0.40269454  0.97902200  0.25092566    -0.11100
C2234       C  0.38775365  0.98743852  0.24410228     0.15400
C2235       C  0.37431736  0.97720528  0.23628761     0.02300
C2236       C  0.37594162  0.95880096  0.23590654    -0.15500
C2237       C  0.39060385  0.95028611  0.24339757    -0.10300
C2238       C  0.40438749  0.96070171  0.25047590     0.09100
C2239       C  0.38694174  0.00691448  0.24514274     0.10100
S2240       S  0.35462073  0.98675401  0.22701544    -0.24600
H2241       H  0.36533349  0.95105407  0.23032086     0.20300
S2242       S  0.42480032  0.95160681  0.25855336    -0.30300
H2243       H  0.41324166  0.98686013  0.25651803     0.10700
C2244       C  0.38432459  0.01553668  0.26134085     0.03900
C2245       C  0.38509645  0.03397228  0.26208451    -0.12600
C2246       C  0.38838348  0.04415537  0.24693446    -0.08300
C2247       C  0.39042669  0.03534248  0.23057121     0.07300
C2248       C  0.38982686  0.01690899  0.22992267    -0.13400
S2249       S  0.38004913  0.00301510  0.28111384    -0.30300
H2250       H  0.38333599  0.04046024  0.27464894     0.11600
S2251       S  0.39465691  0.04659326  0.21015912    -0.27400
H2252       H  0.39187843  0.01025582  0.21746568     0.08800
H2253       H  0.42610597  0.93875908  0.24526288     0.27200
H2254       H  0.37710446  0.01746849  0.29230788     0.22000
H2255       H  0.37892304  0.05635995  0.21101716     0.27300
H2256       H  0.35401818  0.00155468  0.23809997     0.16200
C2257       C  0.62379269  0.17520002  0.15698714    -0.11100
C2258       C  0.61506562  0.17800387  0.17302781     0.15400
C2259       C  0.60728755  0.19454608  0.17633764     0.02300
C2260       C  0.60834896  0.20782305  0.16363744    -0.15500
C2261       C  0.61652893  0.20493138  0.14729612    -0.10300
C2262       C  0.62452600  0.18841184  0.14402544     0.09100
C2263       C  0.61459248  0.16364453  0.18627260     0.10100
S2264       S  0.59532022  0.19938995  0.19627216    -0.24600
H2265       H  0.60203399  0.22033873  0.16629837     0.20300
S2266       S  0.63626620  0.18417118  0.12377905    -0.30300
H2267       H  0.63001419  0.16258391  0.15467951     0.10700
C2268       C  0.60457123  0.14825280  0.18355676     0.03900
C2269       C  0.60367707  0.13550557  0.19692461    -0.12600
C2270       C  0.61250327  0.13785861  0.21304404    -0.08300
C2271       C  0.62315063  0.15299192  0.21536155     0.07300
C2272       C  0.62392012  0.16572992  0.20207506    -0.13400
S2273       S  0.59205903  0.14533107  0.16351167    -0.30300
H2274       H  0.59550336  0.12397748  0.19507357     0.11600
S2275       S  0.63644587  0.15668300  0.23469547    -0.27400
H2276       H  0.63185993  0.17741950  0.20405911     0.08800
H2277       H  0.64071277  0.16655309  0.12736276     0.27200
H2278       H  0.58497609  0.12874829  0.16770409     0.22000
H2279       H  0.64158738  0.13896352  0.23640909     0.27300
H2280       H  0.58858164  0.18232701  0.19870863     0.16200
C2281       C  0.66848594  0.11997841  0.30857337    -0.11100
C2282       C  0.66570993  0.11131602  0.32464446     0.15400
C2283       C  0.64963751  0.10240994  0.32747954     0.02300
C2284       C  0.63686738  0.10215905  0.31417132    -0.15500
C2285       C  0.63988396  0.11024018  0.29781523    -0.10300
C2286       C  0.65577631  0.11962261  0.29520815     0.09100
C2287       C  0.67970375  0.11195477  0.33825832     0.10100
S2288       S  0.64487997  0.09056719  0.34750837    -0.24600
H2289       H  0.62477608  0.09490683  0.31635422     0.20300
S2290       S  0.66040517  0.13194448  0.27546605    -0.30300
H2291       H  0.68063801  0.12716474  0.30648177     0.10700
C2292       C  0.69604968  0.10357513  0.33566071     0.03900
C2293       C  0.70871823  0.10401932  0.34907130    -0.12600
C2294       C  0.70548936  0.11261819  0.36515313    -0.08300
C2295       C  0.68919089  0.12139493  0.36751592     0.07300
C2296       C  0.67650234  0.12086809  0.35411243    -0.13400
S2297       S  0.70050679  0.09149693  0.31564388    -0.30300
H2298       H  0.72106400  0.09715357  0.34717048     0.11600
S2299       S  0.68382835  0.13382342  0.38698633    -0.27400
H2300       H  0.66401511  0.12752055  0.35600907     0.08800
H2301       H  0.64299641  0.13791306  0.27321586     0.27200
H2302       H  0.71804883  0.08698916  0.31958827     0.22000
H2303       H  0.70046781  0.14189900  0.38816887     0.27300
H2304       H  0.66228871  0.08514796  0.35079883     0.16200
C2305       C  0.51666477  0.09336766  0.27441926    -0.11100
C2306       C  0.50826842  0.10863648  0.26837114     0.15400
C2307       C  0.51855640  0.12323485  0.26329097     0.02300
C2308       C  0.53694034  0.12171821  0.26293727    -0.15500
C2309       C  0.54543925  0.10606658  0.26807896    -0.10300
C2310       C  0.53505150  0.09204673  0.27470380     0.09100
C2311       C  0.48885064  0.10839874  0.26645467     0.10100
S2312       S  0.50897274  0.14392930  0.25665845    -0.24600
H2313       H  0.54461176  0.13274573  0.25815533     0.20300
S2314       S  0.54427491  0.07222772  0.28393361    -0.30300
H2315       H  0.50879568  0.08228544  0.27876029     0.10700
C2316       C  0.48088092  0.10677309  0.24977156     0.03900
C2317       C  0.46250702  0.10548922  0.24854940    -0.12600
C2318       C  0.45180869  0.10558782  0.26366031    -0.08300
C2319       C  0.45992255  0.10713613  0.28040183     0.07300
C2320       C  0.47828879  0.10865717  0.28157946    -0.13400
S2321       S  0.49413254  0.10558086  0.23004733    -0.30300
H2322       H  0.45643745  0.10429401  0.23569719     0.11600
S2323       S  0.44783804  0.10621514  0.30077094    -0.27400
H2324       H  0.48446095  0.10961606  0.29442240     0.08800
H2325       H  0.55777262  0.08107803  0.29306915     0.27200
H2326       H  0.48010254  0.10538797  0.21792786     0.22000
H2327       H  0.43722403  0.09197522  0.29548255     0.27300
H2328       H  0.49372482  0.14245587  0.26704138     0.16200
C2329       C  0.69356726  0.88064822  0.33022015    -0.11100
C2330       C  0.67796650  0.89032587  0.33216092     0.15400
C2331       C  0.67549541  0.90058953  0.34745584     0.02300
C2332       C  0.68868135  0.90102476  0.36037568    -0.15500
C2333       C  0.70458949  0.89179485  0.35822150    -0.10300
C2334       C  0.70681306  0.88117315  0.34306243     0.09100
C2335       C  0.66456455  0.88947895  0.31798947     0.10100
S2336       S  0.65609412  0.91384394  0.35100963    -0.24600
H2337       H  0.68678325  0.90924804  0.37187890     0.20300
S2338       S  0.72589801  0.86751115  0.33954611    -0.30300
H2339       H  0.69538743  0.87254983  0.31861204     0.10700
C2340       C  0.66715766  0.89821250  0.30184279     0.03900
C2341       C  0.65395209  0.89759889  0.28893813    -0.12600
C2342       C  0.63811497  0.88844878  0.29180174    -0.08300
C2343       C  0.63591805  0.87905694  0.30775128     0.07300
C2344       C  0.64903181  0.87988558  0.32073489    -0.13400
S2345       S  0.68691799  0.91089898  0.29802263    -0.30300
H2346       H  0.65573427  0.90481337  0.27677832     0.11600
S2347       S  0.61708879  0.86530056  0.31211031    -0.27400
H2348       H  0.64720539  0.87287720  0.33302875     0.08800
H2349       H  0.72765838  0.86258965  0.35732768     0.27200
H2350       H  0.68280969  0.91624642  0.28076426     0.22000
H2351       H  0.61579545  0.85888079  0.29476946     0.27300
H2352       H  0.65290058  0.91773071  0.33319145     0.16200
C2353       C  0.51045821  0.89982064  0.26079276    -0.11100
C2354       C  0.50375572  0.88268755  0.26167611     0.15400
C2355       C  0.51552701  0.86832933  0.26264467     0.02300
C2356       C  0.53374628  0.87144442  0.26217728    -0.15500
C2357       C  0.54048611  0.88862504  0.26075690    -0.10300
C2358       C  0.52857976  0.90295263  0.26051095     0.09100
C2359       C  0.48444167  0.88049466  0.26036225     0.10100
S2360       S  0.50814521  0.84580279  0.26388301    -0.24600
H2361       H  0.54270191  0.86033639  0.26238642     0.20300
S2362       S  0.53557096  0.92557648  0.26025456    -0.30300
H2363       H  0.50143938  0.91087489  0.26019333     0.10700
C2364       C  0.47334786  0.88374338  0.27484680     0.03900
C2365       C  0.45501770  0.88408943  0.27236682    -0.12600
C2366       C  0.44756526  0.88135582  0.25562448    -0.08300
C2367       C  0.45878435  0.87695308  0.24138624     0.07300
C2368       C  0.47704815  0.87680693  0.24387360    -0.13400
S2369       S  0.48262109  0.88790816  0.29635778    -0.30300
H2370       H  0.44651965  0.88728462  0.28334795     0.11600
S2371       S  0.45072709  0.87124969  0.21977620    -0.27400
H2372       H  0.48560952  0.87411296  0.23278331     0.08800
H2373       H  0.54994760  0.92277944  0.27163412     0.27200
H2374       H  0.46652193  0.88971778  0.30532763     0.22000
H2375       H  0.43596862  0.86193099  0.22599231     0.27300
H2376       H  0.49190607  0.84930942  0.27201985     0.16200
C2377       C  0.62345756  0.01685598  0.24814007    -0.11100
C2378       C  0.60960186  0.00853906  0.23921176     0.15400
C2379       C  0.59647672  0.01887709  0.23103076     0.02300
C2380       C  0.59699030  0.03720310  0.23272744    -0.15500
C2381       C  0.61030124  0.04552916  0.24251490    -0.10300
C2382       C  0.62403897  0.03520072  0.24976047     0.09100
C2383       C  0.60782498  0.98922033  0.24076669     0.10100
S2384       S  0.57820024  0.00940833  0.21913038    -0.24600
H2385       H  0.58640015  0.04494417  0.22708219     0.20300
S2386       S  0.64253600  0.04454035  0.26137600    -0.30300
H2387       H  0.63357922  0.00895401  0.25439201     0.10700
C2388       C  0.61885761  0.97744556  0.23162609     0.03900
C2389       C  0.61642928  0.95921623  0.23375347    -0.12600
C2390       C  0.60321747  0.95258818  0.24491351    -0.08300
C2391       C  0.59206050  0.96458384  0.25378533     0.07300
C2392       C  0.59464571  0.98264723  0.25180925    -0.13400
S2393       S  0.63573642  0.98565739  0.21705676    -0.30300
H2394       H  0.62495917  0.95010421  0.22687677     0.11600
S2395       S  0.57356917  0.95780096  0.26693085    -0.27400
H2396       H  0.58605954  0.99172995  0.25870244     0.08800
H2397       H  0.64342744  0.05986459  0.25100960     0.27200
H2398       H  0.64237822  0.96915152  0.21192316     0.22000
H2399       H  0.56826347  0.94494282  0.25472100     0.27300
H2400       H  0.58702360  0.99403122  0.21381521     0.16200
C2401       C  0.84223729  0.60913516  0.17871437    -0.11100
C2402       C  0.82549257  0.61499029  0.18386686     0.15400
C2403       C  0.82270417  0.61994074  0.20155054     0.02300
C2404       C  0.83638930  0.61820500  0.21379459    -0.15500
C2405       C  0.85306561  0.61187301  0.20882787    -0.10300
C2406       C  0.85598255  0.60743683  0.19093459     0.09100
C2407       C  0.81078583  0.61394236  0.17101418     0.10100
S2408       S  0.80192664  0.62841917  0.20931834    -0.24600
H2409       H  0.83394813  0.62184125  0.22737379     0.20300
S2410       S  0.87639053  0.59830191  0.18300145    -0.30300
H2411       H  0.84437913  0.60508879  0.16519761     0.10700
C2412       C  0.81006074  0.62477476  0.15596962     0.03900
C2413       C  0.79625942  0.62260031  0.14379380    -0.12600
C2414       C  0.78307992  0.60984664  0.14639341    -0.08300
C2415       C  0.78395435  0.59899229  0.16154230     0.07300
C2416       C  0.79763566  0.60128225  0.17368058    -0.13400
S2417       S  0.82640237  0.64171023  0.15259752    -0.30300
H2418       H  0.79562278  0.63098775  0.13228587     0.11600
S2419       S  0.76871510  0.58128279  0.16573002    -0.27400
H2420       H  0.79832821  0.59276784  0.18511591     0.08800
H2421       H  0.87774988  0.58583454  0.19665018     0.27200
H2422       H  0.81979374  0.64790532  0.13643136     0.22000
H2423       H  0.76883152  0.57501667  0.14828453     0.27300
H2424       H  0.79686770  0.63619700  0.19328426     0.16200
C2425       C  0.80393010  0.62817862  0.83814710    -0.11100
C2426       C  0.81635989  0.61460325  0.83671290     0.15400
C2427       C  0.81652105  0.60104087  0.84941115     0.02300
C2428       C  0.80374504  0.60083974  0.86266011    -0.15500
C2429       C  0.79079964  0.61401938  0.86378767    -0.10300
C2430       C  0.79131493  0.62816797  0.85162267     0.09100
C2431       C  0.82824250  0.61425361  0.82125675     0.10100
S2432       S  0.83222133  0.58320746  0.84901831    -0.24600
H2433       H  0.80365212  0.58996303  0.87188964     0.20300
S2434       S  0.77653361  0.64670569  0.85266007    -0.30300
H2435       H  0.80393270  0.63874861  0.82856088     0.10700
C2436       C  0.82507729  0.60275305  0.80706420     0.03900
C2437       C  0.83710490  0.60202267  0.79309221    -0.12600
C2438       C  0.85222584  0.61271604  0.79281631    -0.08300
C2439       C  0.85487217  0.62487437  0.80674481     0.07300
C2440       C  0.84298055  0.62535315  0.82086005    -0.13400
S2441       S  0.80564834  0.58901824  0.80673462    -0.30300
H2442       H  0.83485003  0.59281172  0.78245231     0.11600
S2443       S  0.87267264  0.64054933  0.80706910    -0.27400
H2444       H  0.84520790  0.63445622  0.83162502     0.08800
H2445       H  0.77687052  0.64784431  0.87115581     0.27200
H2446       H  0.80869160  0.58122821  0.79021204     0.22000
H2447       H  0.87124385  0.64472955  0.78906803     0.27300
H2448       H  0.84596108  0.59266167  0.84102688     0.16200
C2449       C  0.74825513  0.62581582  0.98598206    -0.11100
C2450       C  0.75947593  0.61387943  0.99451165     0.15400
C2451       C  0.77094216  0.60333139  0.98437345     0.02300
C2452       C  0.77009688  0.60408909  0.96596535    -0.15500
C2453       C  0.75808845  0.61525214  0.95740104    -0.10300
C2454       C  0.74759615  0.62677626  0.96758810     0.09100
C2455       C  0.75756502  0.61145504  0.01376768     0.10100
S2456       S  0.78634491  0.58810945  0.99414636    -0.24600
H2457       H  0.77828178  0.59526885  0.95829980     0.20300
S2458       S  0.73305019  0.64289524  0.95793443    -0.30300
H2459       H  0.73960999  0.63411926  0.99372248     0.10700
C2460       C  0.76368812  0.62405935  0.02590400     0.03900
C2461       C  0.76090567  0.62138679  0.04399569    -0.12600
C2462       C  0.75195800  0.60641141  0.05023229    -0.08300
C2463       C  0.74623389  0.59359720  0.03792359     0.07300
C2464       C  0.74894097  0.59636409  0.01991309    -0.13400
S2465       S  0.77515473  0.64344904  0.01832720    -0.30300
H2466       H  0.76541574  0.63119263  0.05330682     0.11600
S2467       S  0.73594637  0.57316989  0.04421891    -0.27400
H2468       H  0.74434426  0.58660827  0.01055722     0.08800
H2469       H  0.74351563  0.64593861  0.94296064     0.27200
H2470       H  0.77763733  0.65117200  0.03498202     0.22000
H2471       H  0.74739284  0.57007501  0.05848417     0.27300
H2472       H  0.78878078  0.59754586  0.00988844     0.16200
C2473       C  0.68353048  0.34639584  0.11236959    -0.11100
C2474       C  0.68812725  0.32929681  0.11762853     0.15400
C2475       C  0.70585896  0.32560828  0.12187885     0.02300
C2476       C  0.71865005  0.33880355  0.12011758    -0.15500
C2477       C  0.71415226  0.35591082  0.11464927    -0.10300
C2478       C  0.69627496  0.35966921  0.11077502     0.09100
C2479       C  0.67455576  0.31521035  0.11681442     0.10100
S2480       S  0.71293430  0.30434186  0.12973336    -0.24600
H2481       H  0.73222020  0.33574197  0.12334474     0.20300
S2482       S  0.68897168  0.38074512  0.10267341    -0.30300
H2483       H  0.66998334  0.34924953  0.10885736     0.10700
C2484       C  0.66067300  0.31414825  0.12908008     0.03900
C2485       C  0.64795260  0.30076824  0.12737610    -0.12600
C2486       C  0.64889738  0.28829472  0.11370483    -0.08300
C2487       C  0.66279792  0.28961032  0.10133145     0.07300
C2488       C  0.67547985  0.30285875  0.10314702    -0.13400
S2489       S  0.65957567  0.32942850  0.14725559    -0.30300
H2490       H  0.63739522  0.29983304  0.13689939     0.11600
S2491       S  0.66470499  0.27542679  0.08238938    -0.27400
H2492       H  0.68601106  0.30379675  0.09356783     0.08800
H2493       H  0.70329930  0.38301724  0.09115670     0.27200
H2494       H  0.64440430  0.32232839  0.15514455     0.22000
H2495       H  0.64662507  0.27591116  0.07827614     0.27300
H2496       H  0.69693526  0.29980681  0.13786292     0.16200
C2497       C  0.80670125  0.37892752  0.17932224    -0.11100
C2498       C  0.82380313  0.38464067  0.17535537     0.15400
C2499       C  0.82787927  0.38956828  0.15790940     0.02300
C2500       C  0.81463428  0.38939313  0.14504811    -0.15500
C2501       C  0.79721051  0.38469910  0.14921402    -0.10300
C2502       C  0.79345552  0.37872786  0.16648274     0.09100
C2503       C  0.83687443  0.38589792  0.18981666     0.10100
S2504       S  0.84949786  0.39692683  0.15137651    -0.24600
H2505       H  0.81781328  0.39384222  0.13187520     0.20300
S2506       S  0.77222869  0.37034001  0.17297394    -0.30300
H2507       H  0.80362832  0.37471975  0.19260671     0.10700
C2508       C  0.83507559  0.39869305  0.20313208     0.03900
C2509       C  0.84776420  0.39975911  0.21648341    -0.12600
C2510       C  0.86239521  0.38845199  0.21678065    -0.08300
C2511       C  0.86403009  0.37542347  0.20356980     0.07300
C2512       C  0.85131660  0.37436072  0.19019142    -0.13400
S2513       S  0.81706674  0.41426430  0.20268951    -0.30300
H2514       H  0.84653536  0.40979971  0.22652694     0.11600
S2515       S  0.88154009  0.35939975  0.20339300    -0.27400
H2516       H  0.85259267  0.36439104  0.18006498     0.08800
H2517       H  0.76915082  0.36146289  0.15699381     0.27200
H2518       H  0.82124912  0.42297203  0.21849913     0.22000
H2519       H  0.88224880  0.35741399  0.22180007     0.27300
H2520       H  0.85368493  0.40538766  0.16730433     0.16200
C2521       C  0.72820133  0.47789723  0.11591717    -0.11100
C2522       C  0.74247106  0.48857392  0.12070411     0.15400
C2523       C  0.75853356  0.48060312  0.12567937     0.02300
C2524       C  0.76031926  0.46229059  0.12463517    -0.15500
C2525       C  0.74630580  0.45154920  0.11905292    -0.10300
C2526       C  0.72996431  0.45956000  0.11484769     0.09100
C2527       C  0.74094412  0.50787314  0.11819780     0.10100
S2528       S  0.77742375  0.49313142  0.13284042    -0.24600
H2529       H  0.77286180  0.45639042  0.12807778     0.20300
S2530       S  0.71135256  0.44743936  0.10649225    -0.30300
H2531       H  0.71590066  0.48398166  0.11195460     0.10700
C2532       C  0.74908498  0.51619591  0.10377398     0.03900
C2533       C  0.74804634  0.53452570  0.10207175    -0.12600
C2534       C  0.73888620  0.54487665  0.11438557    -0.08300
C2535       C  0.73037599  0.53638843  0.12866121     0.07300
C2536       C  0.73133222  0.51799891  0.13027493    -0.13400
S2537       S  0.76058690  0.50341473  0.08731945    -0.30300
H2538       H  0.75440529  0.54084600  0.09099956     0.11600
S2539       S  0.71892664  0.54819473  0.14573245    -0.27400
H2540       H  0.72500700  0.51157637  0.14132694     0.08800
H2541       H  0.72134089  0.43776760  0.09424588     0.27200
H2542       H  0.76509525  0.51754220  0.07623718     0.22000
H2543       H  0.73222716  0.56092533  0.14783681     0.27300
H2544       H  0.76790482  0.50750746  0.13955881     0.16200
C2545       C  0.80297045  0.40112889  0.83574645    -0.11100
C2546       C  0.81404430  0.38636925  0.83620363     0.15400
C2547       C  0.81227318  0.37408195  0.85003692     0.02300
C2548       C  0.79954842  0.37688056  0.86309241    -0.15500
C2549       C  0.78823477  0.39151590  0.86246348    -0.10300
C2550       C  0.79022608  0.40390610  0.84868914     0.09100
C2551       C  0.82807161  0.38509743  0.82273069     0.10100
S2552       S  0.82555339  0.35445351  0.85155445    -0.24600
H2553       H  0.79817738  0.36730498  0.87357736     0.20300
S2554       S  0.77770423  0.42404338  0.84732245    -0.30300
H2555       H  0.80460239  0.41084121  0.82541605     0.10700
C2556       C  0.82397465  0.38352417  0.80470092     0.03900
C2557       C  0.83745263  0.38494671  0.79218833    -0.12600
C2558       C  0.85502675  0.38787467  0.79727497    -0.08300
C2559       C  0.85912758  0.38883810  0.81546453     0.07300
C2560       C  0.84565289  0.38730075  0.82792689    -0.13400
S2561       S  0.80156226  0.37967073  0.79763018    -0.30300
H2562       H  0.83424456  0.38395836  0.77832930     0.11600
S2563       S  0.88092626  0.39334291  0.82371432    -0.27400
H2564       H  0.84877533  0.38870143  0.84178962     0.08800
H2565       H  0.77861497  0.42766316  0.86547916     0.27200
H2566       H  0.80507405  0.37864121  0.77947687     0.22000
H2567       H  0.88374878  0.40765461  0.81229258     0.27300
H2568       H  0.82816302  0.35242738  0.83333898     0.16200
C2569       C  0.68214129  0.34670089  0.87944056    -0.11100
C2570       C  0.68161707  0.33301865  0.89184189     0.15400
C2571       C  0.69459519  0.33228711  0.90515855     0.02300
C2572       C  0.70785825  0.34501861  0.90565611    -0.15500
C2573       C  0.70827222  0.35890654  0.89346939    -0.10300
C2574       C  0.69529827  0.35961651  0.88008428     0.09100
C2575       C  0.66787845  0.31926636  0.89026732     0.10100
S2576       S  0.69469281  0.31573794  0.92220441    -0.24600
H2577       H  0.71760260  0.34441269  0.91608978     0.20300
S2578       S  0.69519220  0.37612111  0.86303647    -0.30300
H2579       H  0.67237134  0.34715206  0.86902699     0.10700
C2580       C  0.64995874  0.32300114  0.89335777     0.03900
C2581       C  0.63767002  0.30921504  0.89322436    -0.12600
C2582       C  0.64292845  0.29174096  0.89017248    -0.08300
C2583       C  0.66076544  0.28824447  0.88607682     0.07300
C2584       C  0.67301617  0.30198450  0.88631432    -0.13400
S2585       S  0.64288619  0.34508581  0.89865277    -0.30300
H2586       H  0.62402929  0.31194850  0.89634294     0.11600
S2587       S  0.66871035  0.26669022  0.88013042    -0.27400
H2588       H  0.68673893  0.29917655  0.88355797     0.08800
H2589       H  0.71362523  0.37665651  0.86120189     0.27200
H2590       H  0.62481921  0.34132390  0.90027660     0.22000
H2591       H  0.65344374  0.26193488  0.87074257     0.27300
H2592       H  0.67628625  0.31395749  0.92325276     0.16200
C2593       C  0.74843502  0.38807083  0.98895668    -0.11100
C2594       C  0.76249503  0.39767379  0.99609167     0.15400
C2595       C  0.77471313  0.40577691  0.98469125     0.02300
C2596       C  0.77242858  0.40432487  0.96642573    -0.15500
C2597       C  0.75794356  0.39527734  0.95925518    -0.10300
C2598       C  0.74612199  0.38663037  0.97074769     0.09100
C2599       C  0.76383692  0.39893283  0.01548872     0.10100
S2600       S  0.79309104  0.41858071  0.99261270    -0.24600
H2601       H  0.78159666  0.41099015  0.95776987     0.20300
S2602       S  0.72818550  0.37307718  0.96307524    -0.30300
H2603       H  0.73921667  0.38157105  0.99769285     0.10700
C2604       C  0.75235805  0.40984252  0.02506651     0.03900
C2605       C  0.75270606  0.40940357  0.04349535    -0.12600
C2606       C  0.76448271  0.39841978  0.05273819    -0.08300
C2607       C  0.77689202  0.38845492  0.04294914     0.07300
C2608       C  0.77618319  0.38857149  0.02448927    -0.13400
S2609       S  0.73712943  0.42425710  0.01378536    -0.30300
H2610       H  0.74336005  0.41738462  0.05069910     0.11600
S2611       S  0.79405523  0.37552515  0.05298850    -0.27400
H2612       H  0.78528630  0.38047908  0.01705938     0.08800
H2613       H  0.73742959  0.36617595  0.94857897     0.27200
H2614       H  0.73129146  0.43341951  0.02878328     0.22000
H2615       H  0.79903544  0.38892527  0.06478806     0.27300
H2616       H  0.78484647  0.42477671  0.00797176     0.16200
C2617       C  0.72902396  0.52134102  0.91379036    -0.11100
C2618       C  0.73386788  0.51215251  0.89852402     0.15400
C2619       C  0.73813320  0.52172155  0.88314920     0.02300
C2620       C  0.73811455  0.54014464  0.88359092    -0.15500
C2621       C  0.73463245  0.54930634  0.89925849    -0.10300
C2622       C  0.72943973  0.53973141  0.91437006     0.09100
C2623       C  0.73522506  0.49269540  0.89931565     0.10100
S2624       S  0.74492472  0.51126642  0.86294374    -0.24600
H2625       H  0.74208632  0.54732739  0.87192358     0.20300
S2626       S  0.72322974  0.55011590  0.93479874    -0.30300
H2627       H  0.72534244  0.51407921  0.92550737     0.10700
C2628       C  0.74784794  0.48448758  0.91021156     0.03900
C2629       C  0.74939404  0.46614868  0.91004520    -0.12600
C2630       C  0.73873769  0.45566970  0.89914270    -0.08300
C2631       C  0.72615368  0.46393847  0.88812345     0.07300
C2632       C  0.72432727  0.48229765  0.88858154    -0.13400
S2633       S  0.76258075  0.49731389  0.92385970    -0.30300
H2634       H  0.75905459  0.45991176  0.91848802     0.11600
S2635       S  0.71283130  0.45206834  0.87247104    -0.27400
H2636       H  0.71472449  0.48859726  0.88009134     0.08800
H2637       H  0.71527411  0.56483387  0.92682531     0.27200
H2638       H  0.77123311  0.48308952  0.93198870     0.22000
H2639       H  0.72660161  0.44099233  0.86689446     0.27300
H2640       H  0.75446483  0.49760801  0.87104302     0.16200
C2641       C  0.31308608  0.64697995  0.10221189    -0.11100
C2642       C  0.30925098  0.66427173  0.10737485     0.15400
C2643       C  0.29177401  0.66873940  0.11192259     0.02300
C2644       C  0.27851256  0.65598238  0.11081975    -0.15500
C2645       C  0.28229155  0.63867852  0.10551850    -0.10300
C2646       C  0.29985088  0.63421862  0.10109154     0.09100
C2647       C  0.32334639  0.67771324  0.10624381     0.10100
S2648       S  0.28556130  0.69049671  0.11913871    -0.24600
H2649       H  0.26513566  0.65958018  0.11426061     0.20300
S2650       S  0.30606394  0.61295835  0.09257669    -0.30300
H2651       H  0.32639462  0.64359403  0.09831626     0.10700
C2652       C  0.33824371  0.67732313  0.11734688     0.03900
C2653       C  0.35102158  0.69060073  0.11589340    -0.12600
C2654       C  0.34931224  0.70415873  0.10341926    -0.08300
C2655       C  0.33481936  0.70388976  0.09166546     0.07300
C2656       C  0.32191809  0.69088995  0.09340650    -0.13400
S2657       S  0.34066275  0.66036346  0.13383702    -0.30300
H2658       H  0.36217062  0.69066474  0.12480047     0.11600
S2659       S  0.33241396  0.71912331  0.07360217    -0.27400
H2660       H  0.31077461  0.69084465  0.08446376     0.08800
H2661       H  0.29147675  0.61157556  0.08119701     0.27200
H2662       H  0.35794218  0.66473773  0.13892669     0.22000
H2663       H  0.35043752  0.71928600  0.06927356     0.27300
H2664       H  0.30181552  0.69467298  0.12699731     0.16200
C2665       C  0.37819077  0.81770137  0.14965059    -0.11100
C2666       C  0.38298850  0.81353249  0.16697785     0.15400
C2667       C  0.38720752  0.79593722  0.17121246     0.02300
C2668       C  0.38638233  0.78297852  0.15812928    -0.15500
C2669       C  0.38208832  0.78715178  0.14056991    -0.10300
C2670       C  0.37802173  0.80490679  0.13632812     0.09100
C2671       C  0.38309126  0.82781519  0.18033308     0.10100
S2672       S  0.39433621  0.78924220  0.19288052    -0.24600
H2673       H  0.38976842  0.76957535  0.16164726     0.20300
S2674       S  0.37252548  0.81179767  0.11418455    -0.30300
H2675       H  0.37467279  0.83117224  0.14657774     0.10700
C2676       C  0.39451498  0.84239926  0.17885564     0.03900
C2677       C  0.39403699  0.85567601  0.19168413    -0.12600
C2678       C  0.38262465  0.85457562  0.20617659    -0.08300
C2679       C  0.37094549  0.84012755  0.20742114     0.07300
C2680       C  0.37133957  0.82693657  0.19454939    -0.13400
S2681       S  0.41038517  0.84370370  0.16117495    -0.30300
H2682       H  0.40309321  0.86664745  0.19079735     0.11600
S2683       S  0.35489724  0.83799105  0.22476476    -0.27400
H2684       H  0.36232491  0.81592367  0.19554682     0.08800
H2685       H  0.37295734  0.83006205  0.11720757     0.27200
H2686       H  0.41909813  0.85893934  0.16709049     0.22000
H2687       H  0.35142649  0.85613647  0.22610082     0.27300
H2688       H  0.40284067  0.80512051  0.19715722     0.16200
C2689       C  0.36620514  0.83616151  0.80663919    -0.11100
C2690       C  0.37494866  0.83944206  0.82257118     0.15400
C2691       C  0.38300729  0.85595639  0.82528982     0.02300
C2692       C  0.38334580  0.86826935  0.81155688    -0.15500
C2693       C  0.37553397  0.86459893  0.79516157    -0.10300
C2694       C  0.36611005  0.84866263  0.79307476     0.09100
C2695       C  0.37727840  0.82471985  0.83514077     0.10100
S2696       S  0.39376848  0.86173615  0.84567801    -0.24600
H2697       H  0.39035572  0.88054164  0.81349751     0.20300
S2698       S  0.35353054  0.84358921  0.77358292    -0.30300
H2699       H  0.35970166  0.82361989  0.80463751     0.10700
C2700       C  0.36426360  0.82015197  0.84751624     0.03900
C2701       C  0.36714892  0.80581623  0.85887070    -0.12600
C2702       C  0.38286532  0.79601633  0.85815106    -0.08300
C2703       C  0.39610561  0.80111610  0.84606950     0.07300
C2704       C  0.39303408  0.81515116  0.83455471    -0.13400
S2705       S  0.34421119  0.83282670  0.84906176    -0.30300
H2706       H  0.35706448  0.80212114  0.86823341     0.11600
S2707       S  0.41759793  0.79105129  0.84536594    -0.27400
H2708       H  0.40317728  0.81890005  0.82524774     0.08800
H2709       H  0.34809190  0.86104602  0.77056815     0.27200
H2710       H  0.33727510  0.82404599  0.86381458     0.22000
H2711       H  0.41930146  0.78987351  0.86377899     0.27300
H2712       H  0.38323154  0.85117419  0.85660526     0.16200
C2713       C  0.34184423  0.68083955  0.89049064    -0.11100
C2714       C  0.32684543  0.68388081  0.88012307     0.15400
C2715       C  0.32511957  0.70022692  0.87136677     0.02300
C2716       C  0.33809384  0.71320720  0.87357973    -0.15500
C2717       C  0.35307170  0.71019058  0.88406828    -0.10300
C2718       C  0.35485552  0.69371016  0.89260919     0.09100
C2719       C  0.31253362  0.67047369  0.88037112     0.10100
S2720       S  0.30675575  0.70529490  0.85714509    -0.24600
H2721       H  0.33654361  0.72572772  0.86691712     0.20300
S2722       S  0.37266407  0.68864368  0.90749112    -0.30300
H2723       H  0.34307588  0.66853578  0.89761409     0.10700
C2724       C  0.31522335  0.65308169  0.87443367     0.03900
C2725       C  0.30182737  0.64047140  0.87660358    -0.12600
C2726       C  0.28568579  0.64478044  0.88464751    -0.08300
C2727       C  0.28310608  0.66235567  0.89048511     0.07300
C2728       C  0.29639408  0.67490392  0.88811857    -0.13400
S2729       S  0.33563007  0.64699320  0.86383456    -0.30300
H2730       H  0.30398046  0.62715436  0.87202210     0.11600
S2731       S  0.26374690  0.66956716  0.90209976    -0.27400
H2732       H  0.29439652  0.68815373  0.89302428     0.08800
H2733       H  0.37181340  0.70488323  0.91636878     0.27200
H2734       H  0.33087298  0.62958595  0.85969249     0.22000
H2735       H  0.26475866  0.65579402  0.91441273     0.27300
H2736       H  0.30338526  0.68783889  0.85199090     0.16200
C2737       C  0.37334886  0.74788453  0.97945955    -0.11100
C2738       C  0.38268797  0.76120601  0.98815800     0.15400
C2739       C  0.39177382  0.77397944  0.97819634     0.02300
C2740       C  0.39195151  0.77271145  0.95979991    -0.15500
C2741       C  0.38312028  0.75899294  0.95106810    -0.10300
C2742       C  0.37323417  0.74678799  0.96108470     0.09100
C2743       C  0.38385412  0.76052202  0.00758098     0.10100
S2744       S  0.40376209  0.79186076  0.98823417    -0.24600
H2745       H  0.39948744  0.78221052  0.95229317     0.20300
S2746       S  0.36000386  0.72966846  0.95128785    -0.30300
H2747       H  0.36624002  0.73814407  0.98708230     0.10700
C2748       C  0.36929194  0.76446066  0.01836745     0.03900
C2749       C  0.37084382  0.76264624  0.03670494    -0.12600
C2750       C  0.38666321  0.75687772  0.04441577    -0.08300
C2751       C  0.40143670  0.75367109  0.03353458     0.07300
C2752       C  0.39978769  0.75528757  0.01528232    -0.13400
S2753       S  0.34880237  0.77182410  0.00875032    -0.30300
H2754       H  0.35956555  0.76523135  0.04502543     0.11600
S2755       S  0.42288921  0.74802117  0.04208563    -0.27400
H2756       H  0.41104283  0.75247659  0.00697308     0.08800
H2757       H  0.35432549  0.73999177  0.93697345     0.27200
H2758       H  0.33951268  0.77374925  0.02464896     0.22000
H2759       H  0.42173506  0.75907785  0.05691185     0.27300
H2760       H  0.39294864  0.79334561  0.00317959     0.16200
C2761       C  0.58844144  0.81362080  0.16350704    -0.11100
C2762       C  0.60509542  0.82052805  0.16748649     0.15400
C2763       C  0.62009367  0.81367237  0.15889947     0.02300
C2764       C  0.61815740  0.79973143  0.14695108    -0.15500
C2765       C  0.60151548  0.79254397  0.14325672    -0.10300
C2766       C  0.58644944  0.79997269  0.15131456     0.09100
C2767       C  0.60631733  0.83429902  0.18123246     0.10100
S2768       S  0.64199702  0.82204085  0.16272970    -0.24600
H2769       H  0.62975844  0.79429066  0.14067695     0.20300
S2770       S  0.56427944  0.79312930  0.14615337    -0.30300
H2771       H  0.57687481  0.81898597  0.16992194     0.10700
C2772       C  0.59975540  0.85141124  0.17837791     0.03900
C2773       C  0.59978745  0.86357599  0.19226984    -0.12600
C2774       C  0.60619065  0.85897589  0.20902947    -0.08300
C2775       C  0.61365600  0.84206433  0.21151793     0.07300
C2776       C  0.61340594  0.82988556  0.19769633    -0.13400
S2777       S  0.59124201  0.85771061  0.15706310    -0.30300
H2778       H  0.59423127  0.87654049  0.19021623     0.11600
S2779       S  0.62402277  0.83526800  0.23178240    -0.27400
H2780       H  0.61869009  0.81679739  0.19980498     0.08800
H2781       H  0.56751111  0.79010509  0.12816518     0.27200
H2782       H  0.58682298  0.87513774  0.16149670     0.22000
H2783       H  0.63202470  0.85166883  0.23499940     0.27300
H2784       H  0.63688185  0.83938164  0.16668312     0.16200
C2785       C  0.64237468  0.67611880  0.11279140    -0.11100
C2786       C  0.65871697  0.67986867  0.12059676     0.15400
C2787       C  0.66169012  0.69685582  0.12758624     0.02300
C2788       C  0.64870273  0.70984476  0.12586032    -0.15500
C2789       C  0.63250542  0.70623021  0.11768440    -0.10300
C2790       C  0.62930577  0.68904091  0.11121760     0.09100
C2791       C  0.67299824  0.66652869  0.11930232     0.10100
S2792       S  0.68179352  0.70280359  0.13878030    -0.24600
H2793       H  0.65126512  0.72291145  0.13098613     0.20300
S2794       S  0.60948146  0.68305933  0.09956080    -0.30300
H2795       H  0.64009719  0.66322889  0.10711130     0.10700
C2796       C  0.67166661  0.64980026  0.12724892     0.03900
C2797       C  0.68503087  0.63726283  0.12448546    -0.12600
C2798       C  0.69990645  0.64119690  0.11418183    -0.08300
C2799       C  0.70117865  0.65808280  0.10635684     0.07300
C2800       C  0.68780749  0.67045963  0.10902870    -0.13400
S2801       S  0.65334816  0.64470851  0.14152270    -0.30300
H2802       H  0.68407872  0.62446439  0.13067688     0.11600
S2803       S  0.71905335  0.66452378  0.09214223    -0.27400
H2804       H  0.68875344  0.68320245  0.10267861     0.08800
H2805       H  0.60887393  0.69852663  0.08938145     0.27200
H2806       H  0.65834441  0.62729627  0.14536493     0.22000
H2807       H  0.71948454  0.64847581  0.08289287     0.27300
H2808       H  0.68571418  0.68579284  0.14494922     0.16200
C2809       C  0.51154930  0.72465655  0.10464534    -0.11100
C2810       C  0.50153297  0.73933673  0.10963058     0.15400
C2811       C  0.51015282  0.75473974  0.11546267     0.02300
C2812       C  0.52850568  0.75557555  0.11495981    -0.15500
C2813       C  0.53858497  0.74110975  0.10946931    -0.10300
C2814       C  0.52997922  0.72537902  0.10445273     0.09100
C2815       C  0.48220160  0.73870310  0.10752131     0.10100
S2816       S  0.49850315  0.77378572  0.12360376    -0.24600
H2817       H  0.53500592  0.76758959  0.11911088     0.20300
S2818       S  0.54161275  0.70623273  0.09663504    -0.30300
H2819       H  0.50494631  0.71280839  0.10020904     0.10700
C2820       C  0.47365382  0.74899775  0.09466448     0.03900
C2821       C  0.45525430  0.74922374  0.09403446    -0.12600
C2822       C  0.44512097  0.73928047  0.10588122    -0.08300
C2823       C  0.45377639  0.72851707  0.11840711     0.07300
C2824       C  0.47221981  0.72818691  0.11892797    -0.13400
S2825       S  0.48614783  0.76177459  0.07894511    -0.30300
H2826       H  0.44869314  0.75723729  0.08422332     0.11600
S2827       S  0.44221251  0.71585495  0.13477033    -0.27400
H2828       H  0.47884528  0.72025530  0.12878094     0.08800
H2829       H  0.55404839  0.71574177  0.08674736     0.27200
H2830       H  0.47169579  0.76839949  0.06940602     0.22000
H2831       H  0.43005810  0.72926336  0.13873579     0.27300
H2832       H  0.48380029  0.76457352  0.13003483     0.16200
C2833       C  0.61011098  0.80163772  0.83182409    -0.11100
C2834       C  0.60451096  0.81852343  0.83670447     0.15400
C2835       C  0.59962674  0.82173136  0.85434612     0.02300
C2836       C  0.59963065  0.80782873  0.86646178    -0.15500
C2837       C  0.60471475  0.79073514  0.86149530    -0.10300
C2838       C  0.61063801  0.78785802  0.84404657     0.09100
C2839       C  0.60308876  0.83222669  0.82289423     0.10100
S2840       S  0.59299267  0.84316238  0.86215053    -0.24600
H2841       H  0.59526615  0.81034562  0.87980616     0.20300
S2842       S  0.61955618  0.76716735  0.83661826    -0.30300
H2843       H  0.61414494  0.79919627  0.81835578     0.10700
C2844       C  0.61813293  0.84005790  0.81538087     0.03900
C2845       C  0.61610396  0.85267023  0.80199304    -0.12600
C2846       C  0.59930500  0.85755222  0.79591322    -0.08300
C2847       C  0.58424888  0.85003894  0.80394266     0.07300
C2848       C  0.58631817  0.83733179  0.81711477    -0.13400
S2849       S  0.63987451  0.83415119  0.82305239    -0.30300
H2850       H  0.62763931  0.85851168  0.79600477     0.11600
S2851       S  0.56205117  0.85662748  0.79859459    -0.27400
H2852       H  0.57474476  0.83148645  0.82307045     0.08800
H2853       H  0.62891742  0.76387474  0.85229116     0.27200
H2854       H  0.64931321  0.84498982  0.81138737     0.22000
H2855       H  0.56611727  0.87461183  0.79680409     0.27300
H2856       H  0.60282863  0.85300225  0.84996086     0.16200
C2857       C  0.66582347  0.69494719  0.90452132    -0.11100
C2858       C  0.66442073  0.68163671  0.89179295     0.15400
C2859       C  0.64937011  0.68111194  0.88083341     0.02300
C2860       C  0.63626392  0.69397313  0.88270676    -0.15500
C2861       C  0.63790044  0.70757711  0.89514396    -0.10300
C2862       C  0.65275457  0.70776471  0.90642296     0.09100
C2863       C  0.67839106  0.66798197  0.89116297     0.10100
S2864       S  0.64624133  0.66459966  0.86404956    -0.24600
H2865       H  0.62489055  0.69358785  0.87407391     0.20300
S2866       S  0.65537722  0.72327844  0.92421386    -0.30300
H2867       H  0.67704418  0.69508594  0.91336914     0.10700
C2868       C  0.69606244  0.67237404  0.88753462     0.03900
C2869       C  0.70911514  0.65937915  0.88877872    -0.12600
C2870       C  0.70494710  0.64197384  0.89346259    -0.08300
C2871       C  0.68710997  0.63753747  0.89665929     0.07300
C2872       C  0.67410205  0.65054589  0.89544188    -0.13400
S2873       S  0.70199452  0.69444751  0.88093787    -0.30300
H2874       H  0.72268250  0.66280401  0.88605788     0.11600
S2875       S  0.68009470  0.61589856  0.90335422    -0.27400
H2876       H  0.66056167  0.64718175  0.89844640     0.08800
H2877       H  0.63758026  0.72276275  0.92937046     0.27200
H2878       H  0.72034261  0.69186269  0.88074736     0.22000
H2879       H  0.69319762  0.61414808  0.91636801     0.27300
H2880       H  0.66421425  0.66226813  0.86025221     0.16200
C2881       C  0.51198443  0.73694615  0.90898932    -0.11100
C2882       C  0.50414135  0.73558302  0.89234023     0.15400
C2883       C  0.51489052  0.73400494  0.87726152     0.02300
C2884       C  0.53323427  0.73467066  0.87911395    -0.15500
C2885       C  0.54108516  0.73696478  0.89569666    -0.10300
C2886       C  0.53028975  0.73743831  0.91086700     0.09100
C2887       C  0.48485461  0.73782034  0.89115751     0.10100
S2888       S  0.50609952  0.73230556  0.85524288    -0.24600
H2889       H  0.54139739  0.73422090  0.86742566     0.20300
S2890       S  0.53899132  0.73863132  0.93296113    -0.30300
H2891       H  0.50374235  0.73800116  0.92058865     0.10700
C2892       C  0.47322147  0.72347843  0.89255468     0.03900
C2893       C  0.45497076  0.72654631  0.89243709    -0.12600
C2894       C  0.44817945  0.74373803  0.89122734    -0.08300
C2895       C  0.45997802  0.75805623  0.88947184     0.07300
C2896       C  0.47816385  0.75490104  0.88950031    -0.13400
S2897       S  0.48170700  0.70135703  0.89451054    -0.30300
H2898       H  0.44596229  0.71557491  0.89372753     0.11600
S2899       S  0.45212966  0.78034174  0.88654293    -0.27400
H2900       H  0.48731102  0.76578106  0.88838595     0.08800
H2901       H  0.55395656  0.72827962  0.92946368     0.27200
H2902       H  0.46528020  0.69281387  0.89501856     0.22000
H2903       H  0.46869203  0.78840809  0.88462928     0.27300
H2904       H  0.48975319  0.72500513  0.85981187     0.16200
C2905       C  0.61057144  0.76601599  0.98398915    -0.11100
C2906       C  0.59695562  0.75764916  0.99321125     0.15400
C2907       C  0.58353514  0.74890117  0.98379889     0.02300
C2908       C  0.58457546  0.74783048  0.96548128    -0.15500
C2909       C  0.59853994  0.75559623  0.95616984    -0.10300
C2910       C  0.61158048  0.76500770  0.96559387     0.09100
C2911       C  0.59795966  0.75675489  0.01260047     0.10100
S2912       S  0.56505201  0.73832860  0.99435599    -0.24600
H2913       H  0.57431775  0.74083940  0.95841908     0.20300
S2914       S  0.63043389  0.77489744  0.95516537    -0.30300
H2915       H  0.62091520  0.77268080  0.99123793     0.10700
C2916       C  0.60432414  0.74155062  0.02109492     0.03900
C2917       C  0.60420845  0.74072865  0.03952903    -0.12600
C2918       C  0.59766143  0.75474611  0.04967941    -0.08300
C2919       C  0.59103679  0.76987551  0.04100842     0.07300
C2920       C  0.59165489  0.77087613  0.02261534    -0.13400
S2921       S  0.61264149  0.72321897  0.00841590    -0.30300
H2922       H  0.60927617  0.72911780  0.04607221     0.11600
S2923       S  0.58033708  0.78768092  0.05244877    -0.27400
H2924       H  0.58642934  0.78239795  0.01600570     0.08800
H2925       H  0.63366800  0.76049941  0.94396311     0.27200
H2926       H  0.61461780  0.71149201  0.02261780     0.22000
H2927       H  0.57064963  0.77658351  0.06368588     0.27300
H2928       H  0.56483286  0.74882867  0.00957356     0.16200
loop_ 
_geom_bond_atom_site_label_1 
_geom_bond_atom_site_label_2 
_geom_bond_distance 
_geom_bond_site_symmetry_2 
_ccdc_geom_bond_type 
O1            C4   1.265       .  A
O1           Cd6   2.480       .  S
C2           O11   1.262       .  A
C2            O7   1.267       .  A
C2         C2885   1.476       .  S
O3            C9   1.268       .  A
O3           Cd6   2.478       .  S
C4           O12   1.264       .  A
C4         C2861   1.481       .  S
C5           O10   1.265       .  A
C5            O8   1.264       .  A
C5         C2837   1.485       .  S
Cd6          O13   2.424       .  S
Cd6          O12   2.455       .  S
Cd6          O11   2.433       .  S
Cd6           O7   2.485       .  S
Cd6          O10   2.481       .  S
Cd6           O8   2.462       .  S
C9           O13   1.265       .  A
C9         C2909   1.478       .  S
O14          C17   1.267       .  A
O14         Cd19   2.473       .  S
C15          O24   1.266       .  A
C15          O20   1.265       .  A
C15        C2789   1.481       .  S
O16          C22   1.265       .  A
O16         Cd19   2.478       .  S
C17          O25   1.264       .  A
C17        C2813   1.473       .  S
C18          O23   1.267       .  A
C18          O21   1.265       .  A
C18        C2765   1.479       .  S
Cd19         O26   2.457       .  S
Cd19         O25   2.431       .  S
Cd19         O24   2.467       .  S
Cd19         O20   2.470       .  S
Cd19         O23   2.485       .  S
Cd19         O21   2.458       .  S
C22          O26   1.263       .  A
C22        C2918   1.480       .  S
O27          C30   1.266       .  A
O27         Cd32   2.472       .  S
C28          O37   1.262       .  A
C28          O33   1.265       .  A
C28        C2741   1.479       .  S
O29          C35   1.265       .  A
O29         Cd32   2.467       .  S
C30          O38   1.266       .  A
C30        C2702   1.483       .  S
C31          O36   1.266       .  A
C31          O34   1.263       .  A
C31        C2894   1.482       .  S
Cd32         O39   2.485       .  S
Cd32         O38   2.466       .  S
Cd32         O37   2.447       .  S
Cd32         O33   2.489       .  S
Cd32         O36   2.492       .  S
Cd32         O34   2.454       .  S
C35          O39   1.266       .  A
C35        C2717   1.486       .  S
O40          C43   1.263       .  A
O40         Cd45   2.450       .  S
C41          O50   1.264       .  A
C41          O46   1.266       .  A
C41        C2750   1.477       .  S
O42          C48   1.268       .  A
O42         Cd45   2.487       .  S
C43          O51   1.267       .  A
C43        C2669   1.491       .  S
C44          O49   1.266       .  A
C44          O47   1.264       .  A
C44        C2654   1.480       .  S
Cd45         O52   2.416       .  S
Cd45         O51   2.481       .  S
Cd45         O50   2.439       .  S
Cd45         O46   2.477       .  S
Cd45         O49   2.475       .  S
Cd45         O47   2.450       .  S
C48          O52   1.264       .  A
C48        C2822   1.478       .  S
O53          C56   1.266       .  A
O53         Cd58   2.477       .  S
C54          O63   1.264       .  A
C54          O59   1.266       .  A
C54        C2597   1.480       .  S
O55          C61   1.266       .  A
O55         Cd58   2.489       .  S
C56          O64   1.264       .  A
C56        C2549   1.479       .  S
C57          O62   1.266       .  A
C57          O60   1.266       .  A
C57        C2573   1.479       .  S
Cd58         O65   2.429       .  S
Cd58         O64   2.444       .  S
Cd58         O63   2.452       .  S
Cd58         O59   2.483       .  S
Cd58         O62   2.470       .  S
Cd58         O60   2.451       .  S
C61          O65   1.264       .  A
C61        C2630   1.481       .  S
O66          C69   1.265       .  A
O66         Cd71   2.487       .  S
C67          O76   1.266       .  A
C67          O72   1.267       .  A
C67        C2525   1.486       .  S
O68          C74   1.266       .  A
O68         Cd71   2.485       .  S
C69          O77   1.265       .  A
C69        C2477   1.488       .  S
C70          O75   1.266       .  A
C70          O73   1.263       .  A
C70        C2606   1.492       .  S
Cd71         O78   2.462       .  S
Cd71         O77   2.488       .  S
Cd71         O76   2.460       .  S
Cd71         O72   2.478       .  S
Cd71         O75   2.506       .  S
Cd71         O73   2.445       .  S
C74          O78   1.264       .  A
C74        C2501   1.486       .  S
O79          C82   1.265       .  A
O79         Cd84   2.495       .  S
C80          O89   1.267       .  A
C80          O85   1.267       .  A
C80        C2870   1.483       .  S
O81          C87   1.267       .  A
O81         Cd84   2.488       .  S
C82          O90   1.261       .  A
C82        C2621   1.479       .  S
C83          O88   1.265       .  A
C83          O86   1.263       .  A
C83        C2429   1.486       .  S
Cd84         O91   2.445       .  S
Cd84         O90   2.448       .  S
Cd84         O89   2.441       .  S
Cd84         O85   2.464       .  S
Cd84         O88   2.477       .  S
Cd84         O86   2.480       .  S
C87          O91   1.263       .  A
C87        C2453   1.478       .  S
O92          C95   1.267       .  A
O92         Cd97   2.501       .  S
C93         O102   1.265       .  A
C93          O98   1.268       .  A
C93        C2534   1.487       .  S
O94         C100   1.266       .  A
O94         Cd97   2.478       .  S
C95         O103   1.263       .  A
C95        C2798   1.486       .  S
C96         O101   1.266       .  A
C96          O99   1.265       .  A
C96        C2414   1.484       .  S
Cd97        O104   2.470       .  S
Cd97        O103   2.457       .  S
Cd97        O102   2.440       .  S
Cd97         O98   2.501       .  S
Cd97        O101   2.482       .  S
Cd97         O99   2.461       .  S
C100        O104   1.265       .  A
C100       C2462   1.486       .  S
O105        C108   1.266       .  A
O105       Cd110   2.468       .  S
C106        O115   1.267       .  A
C106        O111   1.266       .  A
C106       C2390   1.482       .  S
O107        C113   1.266       .  A
O107       Cd110   2.498       .  S
C108        O116   1.264       .  A
C108       C2774   1.482       .  S
C109        O114   1.266       .  A
C109        O112   1.265       .  A
C109       C2342   1.483       .  S
Cd110       O117   2.461       .  S
Cd110       O116   2.453       .  S
Cd110       O115   2.479       .  S
Cd110       O111   2.446       .  S
Cd110       O114   2.476       .  S
Cd110       O112   2.453       .  S
C113        O117   1.263       .  A
C113       C2357   1.482       .  S
O118        C121   1.264       .  A
O118       Cd123   2.490       .  S
C119        O128   1.265       .  A
C119        O124   1.267       .  A
C119       C2285   1.481       .  S
O120        C126   1.267       .  A
O120       Cd123   2.476       .  S
C121        O129   1.261       .  A
C121       C2309   1.488       .  S
C122        O127   1.266       .  A
C122        O125   1.264       .  A
C122       C2270   1.484       .  S
Cd123       O130   2.455       .  S
Cd123       O129   2.469       .  S
Cd123       O128   2.456       .  S
Cd123       O124   2.474       .  S
Cd123       O127   2.483       .  S
Cd123       O125   2.455       .  S
C126        O130   1.264       .  A
C126       C2381   1.479       .  S
O131        C134   1.266       .  A
O131       Cd136   2.486       .  S
C132        O141   1.265       .  A
C132        O137   1.265       .  A
C132       C2246   1.493       .  S
O133        C139   1.266       .  A
O133       Cd136   2.492       .  S
C134        O142   1.265       .  A
C134       C2213   1.485       .  S
C135        O140   1.267       .  A
C135        O138   1.265       .  A
C135       C2189   1.484       .  S
Cd136       O143   2.446       .  S
Cd136       O142   2.453       .  S
Cd136       O141   2.465       .  S
Cd136       O137   2.480       .  S
Cd136       O140   2.471       .  S
Cd136       O138   2.464       .  S
C139        O143   1.264       .  A
C139       C2318   1.485       .  S
O144        C147   1.267       .  A
O144       Cd149   2.507       .  S
C145        O154   1.265       .  A
C145        O150   1.267       .  A
C145       C2678   1.479       .  S
O146        C152   1.267       .  A
O146       Cd149   2.486       .  S
C147        O155   1.263       .  A
C147       C2237   1.486       .  S
C148        O153   1.266       .  A
C148        O151   1.267       .  A
C148       C2165   1.483       .  S
Cd149       O156   2.450       .  S
Cd149       O155   2.449       .  S
Cd149       O154   2.460       .  S
Cd149       O150   2.472       .  S
Cd149       O153   2.461       .  S
Cd149       O151   2.478       .  S
C152        O156   1.263       .  A
C152       C2366   1.483       .  S
O157        C160   1.267       .  A
O157       Cd162   2.480       .  S
C158        O167   1.264       .  A
C158        O163   1.268       .  A
C158       C2117   1.480       .  S
O159        C165   1.268       .  A
O159       Cd162   2.490       .  S
C160        O168   1.264       .  A
C160       C2093   1.484       .  S
C161        O166   1.267       .  A
C161        O164   1.265       .  A
C161       C2078   1.482       .  S
Cd162       O169   2.451       .  S
Cd162       O168   2.458       .  S
Cd162       O167   2.448       .  S
Cd162       O163   2.490       .  S
Cd162       O166   2.476       .  S
Cd162       O164   2.449       .  S
C165        O169   1.265       .  A
C165       C2150   1.486       .  S
O170        C173   1.266       .  A
O170       Cd175   2.473       .  S
C171        O180   1.263       .  A
C171        O176   1.266       .  A
C171       C2126   1.481       .  S
O172        C178   1.266       .  A
O172       Cd175   2.470       .  S
C173        O181   1.266       .  A
C173       C2222   1.487       .  S
C174        O179   1.266       .  A
C174        O177   1.263       .  A
C174       C2054   1.487       .  S
Cd175       O182   2.461       .  S
Cd175       O181   2.476       .  S
Cd175       O180   2.459       .  S
Cd175       O176   2.487       .  S
Cd175       O179   2.501       .  S
Cd175       O177   2.448       .  S
C178        O182   1.266       .  A
C178       C2021   1.481       .  S
O183        C186   1.265       .  A
O183       Cd188   2.476       .  S
C184        O193   1.266       .  A
C184        O189   1.266       .  A
C184       C1973   1.484       .  S
O185        C191   1.265       .  A
O185       Cd188   2.492       .  S
C186        O194   1.264       .  A
C186       C1997   1.479       .  S
C187        O192   1.266       .  A
C187        O190   1.265       .  A
C187       C2582   1.480       .  S
Cd188       O195   2.456       .  S
Cd188       O194   2.472       .  S
Cd188       O193   2.465       .  S
Cd188       O189   2.463       .  S
Cd188       O192   2.465       .  S
Cd188       O190   2.455       .  S
C191        O195   1.263       .  A
C191       C2141   1.483       .  S
O196        C199   1.266       .  A
O196       Cd201   2.483       .  S
C197        O206   1.263       .  A
C197        O202   1.266       .  A
C197       C2006   1.483       .  S
O198        C204   1.267       .  A
O198       Cd201   2.479       .  S
C199        O207   1.266       .  A
C199       C2261   1.487       .  S
C200        O205   1.266       .  A
C200        O203   1.264       .  A
C200       C2486   1.488       .  S
Cd201       O208   2.451       .  S
Cd201       O207   2.462       .  S
Cd201       O206   2.459       .  S
Cd201       O202   2.494       .  S
Cd201       O205   2.499       .  S
Cd201       O203   2.463       .  S
C204        O208   1.264       .  A
C204       C2045   1.479       .  S
O209        C212   1.267       .  A
O209       Cd214   2.483       .  S
C210        O219   1.263       .  A
C210        O215   1.267       .  A
C210       C1934   1.480       .  S
O211        C217   1.266       .  A
O211       Cd214   2.475       .  S
C212        O220   1.265       .  A
C212       C1910   1.485       .  S
C213        O218   1.267       .  A
C213        O216   1.264       .  A
C213       C1958   1.477       .  S
Cd214       O221   2.459       .  S
Cd214       O220   2.441       .  S
Cd214       O219   2.436       .  S
Cd214       O215   2.490       .  S
Cd214       O218   2.480       .  S
Cd214       O216   2.443       .  S
C217        O221   1.265       .  A
C217       C1877   1.483       .  S
O222        C225   1.267       .  A
O222       Cd227   2.496       .  S
C223        O232   1.268       .  A
C223        O228   1.266       .  A
C223       C1925   1.480       .  S
O224        C230   1.265       .  A
O224       Cd227   2.487       .  S
C225        O233   1.263       .  A
C225       C2510   1.479       .  S
C226        O231   1.265       .  A
C226        O229   1.264       .  A
C226       C1829   1.483       .  S
Cd227       O234   2.466       .  S
Cd227       O233   2.440       .  S
Cd227       O232   2.476       .  S
Cd227       O228   2.446       .  S
Cd227       O231   2.466       .  S
Cd227       O229   2.469       .  S
C230        O234   1.264       .  A
C230       C1853   1.478       .  S
O235        C238   1.265       .  A
O235       Cd240   2.466       .  S
C236        O245   1.264       .  A
C236        O241   1.266       .  A
C236       C1862   1.482       .  S
O237        C243   1.266       .  A
O237       Cd240   2.476       .  S
C238        O246   1.266       .  A
C238       C1790   1.481       .  S
C239        O244   1.266       .  A
C239        O242   1.263       .  A
C239       C1805   1.479       .  S
Cd240       O247   2.456       .  S
Cd240       O246   2.469       .  S
Cd240       O245   2.462       .  S
Cd240       O241   2.476       .  S
Cd240       O244   2.485       .  S
Cd240       O242   2.433       .  S
C243        O247   1.266       .  A
C243       C2405   1.485       .  S
O248        C251   1.265       .  A
O248       Cd253   2.487       .  S
C249        O258   1.263       .  A
C249        O254   1.266       .  A
C249       C1949   1.474       .  S
O250        C256   1.267       .  A
O250       Cd253   2.464       .  S
C251        O259   1.264       .  A
C251       C1766   1.483       .  S
C252        O257   1.265       .  A
C252        O255   1.263       .  A
C252       C1733   1.481       .  S
Cd253       O260   2.441       .  S
Cd253       O259   2.462       .  S
Cd253       O258   2.444       .  S
Cd253       O254   2.480       .  S
Cd253       O257   2.483       .  S
Cd253       O255   2.458       .  S
C256        O260   1.266       .  A
C256       C1814   1.477       .  S
O261        C264   1.269       .  A
O261       Cd266   2.497       .  S
C262        O271   1.263       .  A
C262        O267   1.267       .  A
C262       C1685   1.480       .  S
O263        C269   1.265       .  A
O263       Cd266   2.494       .  S
C264        O272   1.264       .  A
C264       C2726   1.494       .  S
C265        O270   1.266       .  A
C265        O268   1.267       .  A
C265       C1661   1.486       .  S
Cd266       O273   2.443       .  S
Cd266       O272   2.459       .  S
Cd266       O271   2.442       .  S
Cd266       O267   2.491       .  S
Cd266       O270   2.460       .  S
Cd266       O268   2.474       .  S
C269        O273   1.263       .  A
C269       C1709   1.477       .  S
O274        C277   1.265       .  A
O274       Cd279   2.457       .  S
C275        O284   1.265       .  A
C275        O280   1.265       .  A
C275       C1637   1.478       .  S
O276        C282   1.264       .  A
O276       Cd279   2.462       .  S
C277        O285   1.266       .  A
C277       C2645   1.480       .  S
C278        O283   1.265       .  A
C278        O281   1.263       .  A
C278       C1718   1.480       .  S
Cd279       O286   2.463       .  S
Cd279       O285   2.471       .  S
Cd279       O284   2.444       .  S
Cd279       O280   2.470       .  S
Cd279       O283   2.475       .  S
Cd279       O281   2.445       .  S
C282        O286   1.266       .  A
C282       C1742   1.480       .  S
O287        C290   1.266       .  A
O287       Cd292   2.478       .  S
C288        O297   1.263       .  A
C288        O293   1.265       .  A
C288       C1613   1.472       .  S
O289        C295   1.267       .  A
O289       Cd292   2.488       .  S
C290        O298   1.264       .  A
C290       C1901   1.481       .  S
C291        O296   1.268       .  A
C291        O294   1.266       .  A
C291       C2030   1.484       .  S
Cd292       O299   2.431       .  S
Cd292       O298   2.453       .  S
Cd292       O297   2.445       .  S
Cd292       O293   2.478       .  S
Cd292       O296   2.476       .  S
Cd292       O294   2.450       .  S
C295        O299   1.263       .  A
C295       C1646   1.480       .  S
O300        C303   1.268       .  A
O300       Cd305   2.478       .  S
C301        O310   1.265       .  A
C301        O306   1.266       .  A
C301       C1598   1.485       .  S
O302        C308   1.267       .  A
O302       Cd305   2.485       .  S
C303        O311   1.264       .  A
C303       C1622   1.488       .  S
C304        O309   1.266       .  A
C304        O307   1.265       .  A
C304       C2069   1.482       .  S
Cd305       O312   2.445       .  S
Cd305       O311   2.450       .  S
Cd305       O310   2.451       .  S
Cd305       O306   2.484       .  S
Cd305       O309   2.468       .  S
Cd305       O307   2.461       .  S
C308        O312   1.264       .  A
C308       C1694   1.479       .  S
O313        C316   1.266       .  A
O313       Cd318   2.466       .  S
C314        O323   1.264       .  A
C314        O319   1.265       .  A
C314       C1541   1.477       .  S
O315        C321   1.267       .  A
O315       Cd318   2.474       .  S
C316        O324   1.266       .  A
C316       C1517   1.483       .  S
C317        O322   1.266       .  A
C317        O320   1.263       .  A
C317       C1565   1.482       .  S
Cd318       O325   2.460       .  S
Cd318       O324   2.470       .  S
Cd318       O323   2.454       .  S
Cd318       O319   2.484       .  S
Cd318       O322   2.492       .  S
Cd318       O320   2.455       .  S
C321        O325   1.266       .  A
C321       C1493   1.483       .  S
O326        C329   1.264       .  A
O326       Cd331   2.477       .  S
C327        O336   1.267       .  A
C327        O332   1.267       .  A
C327       C1469   1.477       .  S
O328        C334   1.267       .  A
O328       Cd331   2.490       .  S
C329        O337   1.264       .  A
C329       C1445   1.480       .  S
C330        O335   1.266       .  A
C330        O333   1.264       .  A
C330       C1421   1.485       .  S
Cd331       O338   2.454       .  S
Cd331       O337   2.452       .  S
Cd331       O336   2.440       .  S
Cd331       O332   2.458       .  S
Cd331       O335   2.487       .  S
Cd331       O333   2.466       .  S
C334        O338   1.264       .  A
C334       C1574   1.481       .  S
O339        C342   1.267       .  A
O339       Cd344   2.484       .  S
C340        O349   1.264       .  A
C340        O345   1.268       .  A
C340       C1397   1.479       .  S
O341        C347   1.267       .  A
O341       Cd344   2.478       .  S
C342        O350   1.263       .  A
C342       C1382   1.479       .  S
C343        O348   1.266       .  A
C343        O346   1.263       .  A
C343       C1781   1.488       .  S
Cd344       O351   2.443       .  S
Cd344       O350   2.452       .  S
Cd344       O349   2.435       .  S
Cd344       O345   2.492       .  S
Cd344       O348   2.482       .  S
Cd344       O346   2.456       .  S
C347        O351   1.264       .  A
C347       C1550   1.478       .  S
O352        C355   1.266       .  A
O352       Cd357   2.462       .  S
C353        O362   1.263       .  A
C353        O358   1.265       .  A
C353       C1406   1.485       .  S
O354        C360   1.266       .  A
O354       Cd357   2.481       .  S
C355        O363   1.266       .  A
C355       C1349   1.480       .  S
C356        O361   1.266       .  A
C356        O359   1.265       .  A
C356       C1478   1.480       .  S
Cd357       O364   2.458       .  S
Cd357       O363   2.464       .  S
Cd357       O362   2.462       .  S
Cd357       O358   2.492       .  S
Cd357       O361   2.477       .  S
Cd357       O359   2.441       .  S
C360        O364   1.264       .  A
C360       C1757   1.484       .  S
O365        C368   1.266       .  A
O365       Cd370   2.485       .  S
C366        O375   1.265       .  A
C366        O371   1.266       .  A
C366       C1334   1.489       .  S
O367        C373   1.266       .  A
O367       Cd370   2.484       .  S
C368        O376   1.264       .  A
C368       C1277   1.484       .  S
C369        O374   1.267       .  A
C369        O372   1.265       .  A
C369       C1589   1.481       .  S
Cd370       O377   2.454       .  S
Cd370       O376   2.452       .  S
Cd370       O375   2.444       .  S
Cd370       O371   2.477       .  S
Cd370       O374   2.473       .  S
Cd370       O372   2.451       .  S
C373        O377   1.265       .  A
C373       C1310   1.486       .  S
O378        C381   1.266       .  A
O378       Cd383   2.462       .  S
C379        O388   1.264       .  A
C379        O384   1.265       .  A
C379       C1253   1.479       .  S
O380        C386   1.265       .  A
O380       Cd383   2.471       .  S
C381        O389   1.266       .  A
C381       C1229   1.480       .  S
C382        O387   1.266       .  A
C382        O385   1.264       .  A
C382       C1301   1.479       .  S
Cd383       O390   2.453       .  S
Cd383       O389   2.453       .  S
Cd383       O388   2.445       .  S
Cd383       O384   2.478       .  S
Cd383       O387   2.478       .  S
Cd383       O385   2.438       .  S
C386        O390   1.265       .  A
C386       C2558   1.483       .  S
O391        C394   1.266       .  A
O391       Cd396   2.488       .  S
C392        O401   1.264       .  A
C392        O397   1.267       .  A
C392       C1262   1.482       .  S
O393        C399   1.267       .  A
O393       Cd396   2.477       .  S
C394        O402   1.264       .  A
C394       C1526   1.482       .  S
C395        O400   1.265       .  A
C395        O398   1.265       .  A
C395       C2438   1.488       .  S
Cd396       O403   2.450       .  S
Cd396       O402   2.450       .  S
Cd396       O401   2.445       .  S
Cd396       O397   2.493       .  S
Cd396       O400   2.490       .  S
Cd396       O398   2.463       .  S
C399        O403   1.266       .  A
C399       C1205   1.481       .  S
O404        C407   1.266       .  A
O404       Cd409   2.481       .  S
C405        O414   1.265       .  A
C405        O410   1.267       .  A
C405       C1454   1.484       .  S
O406        C412   1.269       .  A
O406       Cd409   2.489       .  S
C407        O415   1.264       .  A
C407       C1325   1.478       .  S
C408        O413   1.268       .  A
C408        O411   1.263       .  A
C408       C1670   1.484       .  S
Cd409       O416   2.444       .  S
Cd409       O415   2.450       .  S
Cd409       O414   2.449       .  S
Cd409       O410   2.462       .  S
Cd409       O413   2.489       .  S
Cd409       O411   2.449       .  S
C412        O416   1.265       .  A
C412       C1214   1.481       .  S
O417        C420   1.266       .  A
O417       Cd422   2.485       .  S
C418        O427   1.265       .  A
C418        O423   1.266       .  A
C418       C1133   1.480       .  S
O419        C425   1.266       .  A
O419       Cd422   2.503       .  S
C420        O428   1.264       .  A
C420       C1166   1.488       .  S
C421        O426   1.266       .  A
C421        O424   1.265       .  A
C421       C2198   1.481       .  S
Cd422       O429   2.440       .  S
Cd422       O428   2.462       .  S
Cd422       O427   2.459       .  S
Cd422       O423   2.467       .  S
Cd422       O426   2.467       .  S
Cd422       O424   2.462       .  S
C425        O429   1.263       .  A
C425       C1190   1.482       .  S
O430        C433   1.266       .  A
O430       Cd435   2.492       .  S
C431        O440   1.264       .  A
C431        O436   1.268       .  A
C431       C1157   1.481       .  S
O432        C438   1.267       .  A
O432       Cd435   2.488       .  S
C433        O441   1.265       .  A
C433       C1358   1.487       .  S
C434        O439   1.267       .  A
C434        O437   1.265       .  A
C434       C2174   1.485       .  S
Cd435       O442   2.445       .  S
Cd435       O441   2.466       .  S
Cd435       O440   2.442       .  S
Cd435       O436   2.493       .  S
Cd435       O439   2.493       .  S
Cd435       O437   2.459       .  S
C438        O442   1.263       .  A
C438       C1109   1.482       .  S
O443        C446   1.267       .  A
O443       Cd448   2.475       .  S
C444        O453   1.264       .  A
C444        O449   1.265       .  A
C444       C1061   1.485       .  S
O445        C451   1.265       .  A
O445       Cd448   2.505       .  S
C446        O454   1.265       .  A
C446       C1118   1.484       .  S
C447        O452   1.267       .  A
C447        O450   1.265       .  A
C447       C1430   1.485       .  S
Cd448       O455   2.466       .  S
Cd448       O454   2.454       .  S
Cd448       O453   2.470       .  S
Cd448       O449   2.492       .  S
Cd448       O452   2.473       .  S
Cd448       O450   2.463       .  S
C451        O455   1.263       .  A
C451       C1085   1.492       .  S
O456        C459   1.267       .  A
O456       Cd461   2.470       .  S
C457        O466   1.264       .  A
C457        O462   1.266       .  A
C457       C1094   1.482       .  S
O458        C464   1.267       .  A
O458       Cd461   2.469       .  S
C459        O467   1.264       .  A
C459       C1022   1.477       .  S
C460        O465   1.265       .  A
C460        O463   1.265       .  A
C460       C1046   1.484       .  S
Cd461       O468   2.451       .  S
Cd461       O467   2.444       .  S
Cd461       O466   2.456       .  S
Cd461       O462   2.490       .  S
Cd461       O465   2.471       .  S
Cd461       O463   2.471       .  S
C464        O468   1.265       .  A
C464       C1181   1.478       .  S
O469        C472   1.267       .  A
O469       Cd474   2.489       .  S
C470        O479   1.264       .  A
C470        O475   1.268       .  A
C470        C965   1.480       .  S
O471        C477   1.267       .  A
O471       Cd474   2.481       .  S
C472        O480   1.264       .  A
C472       C1142   1.480       .  S
C473        O478   1.265       .  A
C473        O476   1.265       .  A
C473       C1886   1.478       .  S
Cd474       O481   2.446       .  S
Cd474       O480   2.432       .  S
Cd474       O479   2.432       .  S
Cd474       O475   2.493       .  S
Cd474       O478   2.474       .  S
Cd474       O476   2.461       .  S
C477        O481   1.264       .  A
C477        C998   1.481       .  S
O482        C485   1.267       .  A
O482       Cd487   2.465       .  S
C483        O492   1.263       .  A
C483        O488   1.267       .  A
C483        C974   1.482       .  S
O484        C490   1.266       .  A
O484       Cd487   2.468       .  S
C485        O493   1.266       .  A
C485        C917   1.483       .  S
C486        O491   1.267       .  A
C486        O489   1.264       .  A
C486        C941   1.479       .  S
Cd487       O494   2.459       .  S
Cd487       O493   2.465       .  S
Cd487       O492   2.439       .  S
Cd487       O488   2.496       .  S
Cd487       O491   2.487       .  S
Cd487       O489   2.445       .  S
C490        O494   1.265       .  A
C490       C1838   1.477       .  S
O495        C498   1.265       .  A
O495       Cd500   2.479       .  S
C496        O505   1.266       .  A
C496        O501   1.267       .  A
C496        C950   1.481       .  S
O497        C503   1.267       .  A
O497       Cd500   2.484       .  S
C498        O506   1.264       .  A
C498       C1238   1.482       .  S
C499        O504   1.265       .  A
C499        O502   1.264       .  A
C499        C869   1.480       .  S
Cd500       O507   2.426       .  S
Cd500       O506   2.454       .  S
Cd500       O505   2.446       .  S
Cd500       O501   2.477       .  S
Cd500       O504   2.482       .  S
Cd500       O502   2.443       .  S
C503        O507   1.264       .  A
C503        C893   1.475       .  S
O508        C511   1.265       .  A
O508       Cd513   2.456       .  S
C509        O518   1.264       .  A
C509        O514   1.265       .  A
C509        C902   1.476       .  S
O510        C516   1.266       .  A
O510       Cd513   2.478       .  S
C511        O519   1.267       .  A
C511       C1013   1.481       .  S
C512        O517   1.267       .  A
C512        O515   1.264       .  A
C512        C989   1.488       .  S
Cd513       O520   2.465       .  S
Cd513       O519   2.464       .  S
Cd513       O518   2.445       .  S
Cd513       O514   2.471       .  S
Cd513       O517   2.491       .  S
Cd513       O515   2.449       .  S
C516        O520   1.265       .  A
C516       C1286   1.484       .  S
O521        C524   1.268       .  A
O521       Cd526   2.489       .  S
C522        O531   1.263       .  A
C522        O527   1.268       .  A
C522        C821   1.484       .  S
O523        C529   1.267       .  A
O523       Cd526   2.483       .  S
C524        O532   1.265       .  A
C524        C797   1.483       .  S
C525        O530   1.268       .  A
C525        O528   1.264       .  A
C525       C1502   1.487       .  S
Cd526       O533   2.445       .  S
Cd526       O532   2.439       .  S
Cd526       O531   2.445       .  S
Cd526       O527   2.491       .  S
Cd526       O530   2.484       .  S
Cd526       O528   2.441       .  S
C529        O533   1.264       .  A
C529        C845   1.483       .  S
O534        C537   1.266       .  A
O534       Cd539   2.478       .  S
C535        O544   1.264       .  A
C535        O540   1.267       .  A
C535        C773   1.478       .  S
O536        C542   1.265       .  A
O536       Cd539   2.477       .  S
C537        O545   1.264       .  A
C537        C749   1.485       .  S
C538        O543   1.266       .  A
C538        O541   1.264       .  A
C538        C854   1.487       .  S
Cd539       O546   2.452       .  S
Cd539       O545   2.463       .  S
Cd539       O544   2.434       .  S
Cd539       O540   2.487       .  S
Cd539       O543   2.491       .  S
Cd539       O541   2.435       .  S
C542        O546   1.264       .  A
C542        C878   1.479       .  S
O547        C550   1.265       .  A
O547       Cd552   2.487       .  S
C548        O557   1.266       .  A
C548        O553   1.267       .  A
C548        C782   1.479       .  S
O549        C555   1.266       .  A
O549       Cd552   2.490       .  S
C550        O558   1.264       .  A
C550       C2294   1.485       .  S
C551        O556   1.266       .  A
C551        O554   1.266       .  A
C551        C926   1.481       .  S
Cd552       O559   2.457       .  S
Cd552       O558   2.442       .  S
Cd552       O557   2.460       .  S
Cd552       O553   2.470       .  S
Cd552       O556   2.474       .  S
Cd552       O554   2.463       .  S
C555        O559   1.263       .  A
C555        C734   1.483       .  S
O560        C563   1.267       .  A
O560       Cd565   2.494       .  S
C561        O570   1.265       .  A
C561        O566   1.267       .  A
C561       C1373   1.485       .  S
O562        C568   1.266       .  A
O562       Cd565   2.484       .  S
C563        O571   1.264       .  A
C563        C725   1.480       .  S
C564        O569   1.266       .  A
C564        O567   1.266       .  A
C564       C2333   1.484       .  S
Cd565       O572   2.448       .  S
Cd565       O571   2.445       .  S
Cd565       O570   2.455       .  S
Cd565       O566   2.477       .  S
Cd565       O569   2.477       .  S
Cd565       O567   2.471       .  S
C568        O572   1.264       .  A
C568        C830   1.483       .  S
O573        C576   1.266       .  A
O573       Cd578   2.477       .  S
C574        O583   1.262       .  A
C574        O579   1.265       .  A
C574        C677   1.479       .  S
O575        C581   1.266       .  A
O575       Cd578   2.481       .  S
C576        O584   1.267       .  A
C576       C2693   1.484       .  S
C577        O582   1.265       .  A
C577        O580   1.265       .  A
C577       C1070   1.492       .  S
Cd578       O585   2.457       .  S
Cd578       O584   2.473       .  S
Cd578       O583   2.451       .  S
Cd578       O579   2.490       .  S
Cd578       O582   2.494       .  S
Cd578       O580   2.465       .  S
C581        O585   1.265       .  A
C581        C701   1.487       .  S
O586        C589   1.267       .  A
O586       Cd591   2.465       .  S
C587        O596   1.263       .  A
C587        O592   1.267       .  A
C587        C662   1.483       .  S
O588        C594   1.267       .  A
O588       Cd591   2.479       .  S
C589        O597   1.265       .  A
C589       C1037   1.478       .  S
C590        O595   1.267       .  A
C590        O593   1.264       .  A
C590        C686   1.480       .  S
Cd591       O598   2.463       .  S
Cd591       O597   2.451       .  S
Cd591       O596   2.442       .  S
Cd591       O592   2.493       .  S
Cd591       O595   2.478       .  S
Cd591       O593   2.455       .  S
C594        O598   1.265       .  A
C594       C2102   1.486       .  S
O599        C602   1.266       .  A
O599       Cd604   2.486       .  S
C600        O609   1.264       .  A
C600        O605   1.267       .  A
C600       C2846   1.482       .  S
O601        C607   1.267       .  A
O601       Cd604   2.477       .  S
C602        O610   1.263       .  A
C602        C629   1.479       .  S
C603        O608   1.264       .  A
C603        O606   1.266       .  A
C603        C806   1.479       .  S
Cd604       O611   2.433       .  S
Cd604       O610   2.444       .  S
Cd604       O609   2.452       .  S
Cd604       O605   2.490       .  S
Cd604       O608   2.463       .  S
Cd604       O606   2.476       .  S
C607        O611   1.263       .  A
C607        C710   1.476       .  S
O612        C615   1.266       .  A
O612       Cd617   2.488       .  S
C613        O622   1.265       .  A
C613        O618   1.268       .  A
C613        C653   1.479       .  S
O614        C620   1.267       .  A
O614       Cd617   2.486       .  S
C615        O623   1.264       .  A
C615        C758   1.482       .  S
C616        O621   1.264       .  A
C616        O619   1.263       .  A
C616       C1982   1.491       .  S
Cd617       O624   2.440       .  S
Cd617       O623   2.452       .  S
Cd617       O622   2.434       .  S
Cd617       O618   2.488       .  S
Cd617       O621   2.494       .  S
Cd617       O619   2.449       .  S
C620        O624   1.265       .  A
C620        C638   1.483       .  S
C625        C626   1.402       .  A
C625        C630   1.402       .  A
C625        H635   1.084       .  S
C626        C631   1.478   1_565  S
C626        C627   1.411       .  A
C627        C628   1.397       .  A
C627        S632   1.804       .  S
C628        C629   1.404       .  A
C628        H633   1.084       .  S
C629        C630   1.416       .  A
C630        S634   1.802       .  S
C631        C636   1.408       .  A
C631        C640   1.401       .  A
S632        H648   1.405   1_565  S
S634        H645   1.407       .  S
C636        C637   1.400       .  A
C636        S641   1.808       .  S
C637        C638   1.406       .  A
C637        H642   1.083       .  S
C638        C639   1.417       .  A
C639        C640   1.402       .  A
C639        S643   1.801       .  S
C640        H644   1.084       .  S
S641        H646   1.407       .  S
S643        H647   1.407       .  S
C649        C650   1.401       .  A
C649        C654   1.397       .  A
C649        H659   1.084       .  S
C650        C655   1.480       .  S
C650        C651   1.414       .  A
C651        C652   1.403       .  A
C651        S656   1.805       .  S
C652        C653   1.405       .  A
C652        H657   1.084       .  S
C653        C654   1.414       .  A
C654        S658   1.804       .  S
C655        C660   1.409       .  A
C655        C664   1.400       .  A
S656        H672   1.404       .  S
S658        H669   1.407       .  S
C660        C661   1.407       .  A
C660        S665   1.805       .  S
C661        C662   1.407       .  A
C661        H666   1.083       .  S
C662        C663   1.416       .  A
C663        C664   1.396       .  A
C663        S667   1.803       .  S
C664        H668   1.085       .  S
S665        H670   1.407       .  S
S667        H671   1.407       .  S
C673        C674   1.401       .  A
C673        C678   1.398       .  A
C673        H683   1.084       .  S
C674        C679   1.480   1_565  S
C674        C675   1.412       .  A
C675        C676   1.402       .  A
C675        S680   1.804       .  S
C676        C677   1.405       .  A
C676        H681   1.084       .  S
C677        C678   1.415       .  A
C678        S682   1.804       .  S
C679        C684   1.408       .  A
C679        C688   1.401       .  A
S680        H696   1.405   1_565  S
S682        H693   1.407       .  S
C684        C685   1.403       .  A
C684        S689   1.806       .  S
C685        C686   1.405       .  A
C685        H690   1.083       .  S
C686        C687   1.416       .  A
C687        C688   1.400       .  A
C687        S691   1.804       .  S
C688        H692   1.084       .  S
S689        H694   1.407       .  S
S691        H695   1.407       .  S
C697        C698   1.401       .  A
C697        C702   1.401       .  A
C697        H707   1.084       .  S
C698        C703   1.478       .  S
C698        C699   1.410       .  A
C699        C700   1.398       .  A
C699        S704   1.806       .  S
C700        C701   1.407       .  A
C700        H705   1.084       .  S
C701        C702   1.418       .  A
C702        S706   1.801       .  S
C703        C708   1.409       .  A
C703        C712   1.401       .  A
S704        H720   1.405       .  S
S706        H717   1.407       .  S
C708        C709   1.403       .  A
C708        S713   1.806       .  S
C709        C710   1.405       .  A
C709        H714   1.083       .  S
C710        C711   1.415       .  A
C711        C712   1.397       .  A
C711        S715   1.804       .  S
C712        H716   1.084       .  S
S713        H718   1.407       .  S
S715        H719   1.407       .  S
C721        C722   1.401       .  A
C721        C726   1.398       .  A
C721        H731   1.084       .  S
C722        C727   1.480   1_565  S
C722        C723   1.412       .  A
C723        C724   1.403       .  A
C723        S728   1.803       .  S
C724        C725   1.406       .  A
C724        H729   1.084       .  S
C725        C726   1.414       .  A
C726        S730   1.803       .  S
C727        C732   1.408       .  A
C727        C736   1.400       .  A
S728        H744   1.405   1_565  S
S730        H741   1.407       .  S
C732        C733   1.405       .  A
C732        S737   1.805       .  S
C733        C734   1.407       .  A
C733        H738   1.083       .  S
C734        C735   1.416       .  A
C735        C736   1.399       .  A
C735        S739   1.803       .  S
C736        H740   1.084       .  S
S737        H742   1.407       .  S
S739        H743   1.407       .  S
C745        C746   1.402       .  A
C745        C750   1.400       .  A
C745        H755   1.084       .  S
C746        C751   1.481       .  S
C746        C747   1.411       .  A
C747        C748   1.400       .  A
C747        S752   1.804       .  S
C748        C749   1.406       .  A
C748        H753   1.084       .  S
C749        C750   1.417       .  A
C750        S754   1.802       .  S
C751        C756   1.408       .  A
C751        C760   1.403       .  A
S752        H768   1.405       .  S
S754        H765   1.407       .  S
C756        C757   1.401       .  A
C756        S761   1.807       .  S
C757        C758   1.405       .  A
C757        H762   1.083       .  S
C758        C759   1.416       .  A
C759        C760   1.402       .  A
C759        S763   1.802       .  S
C760        H764   1.084       .  S
S761        H766   1.407       .  S
S763        H767   1.407       .  S
C769        C770   1.400       .  A
C769        C774   1.395       .  A
C769        H779   1.084       .  S
C770        C775   1.478       .  S
C770        C771   1.413       .  A
C771        C772   1.403       .  A
C771        S776   1.804       .  S
C772        C773   1.405       .  A
C772        H777   1.084       .  S
C773        C774   1.415       .  A
C774        S778   1.804       .  S
C775        C780   1.408       .  A
C775        C784   1.401       .  A
S776        H792   1.405       .  S
S778        H789   1.407       .  S
C780        C781   1.403       .  A
C780        S785   1.807       .  S
C781        C782   1.405       .  A
C781        H786   1.083       .  S
C782        C783   1.415       .  A
C783        C784   1.400       .  A
C783        S787   1.802       .  S
C784        H788   1.084       .  S
S785        H790   1.407       .  S
S787        H791   1.407       .  S
C793        C794   1.402       .  A
C793        C798   1.403       .  A
C793        H803   1.084       .  S
C794        C799   1.478       .  S
C794        C795   1.410       .  A
C795        C796   1.397       .  A
C795        S800   1.805       .  S
C796        C797   1.405       .  A
C796        H801   1.084       .  S
C797        C798   1.417       .  A
C798        S802   1.801       .  S
C799        C804   1.408       .  A
C799        C808   1.402       .  A
S800        H816   1.404       .  S
S802        H813   1.407       .  S
C804        C805   1.403       .  A
C804        S809   1.807       .  S
C805        C806   1.406       .  A
C805        H810   1.083       .  S
C806        C807   1.414       .  A
C807        C808   1.400       .  A
C807        S811   1.802       .  S
C808        H812   1.084       .  S
S809        H814   1.407       .  S
S811        H815   1.407       .  S
C817        C818   1.401       .  A
C817        C822   1.398       .  A
C817        H827   1.084       .  S
C818        C823   1.482       .  S
C818        C819   1.412       .  A
C819        C820   1.402       .  A
C819        S824   1.804       .  S
C820        C821   1.406       .  A
C820        H825   1.084       .  S
C821        C822   1.417       .  A
C822        S826   1.803       .  S
C823        C828   1.409       .  A
C823        C832   1.402       .  A
S824        H840   1.405       .  S
S826        H837   1.406       .  S
C828        C829   1.401       .  A
C828        S833   1.808       .  S
C829        C830   1.406       .  A
C829        H834   1.083       .  S
C830        C831   1.416       .  A
C831        C832   1.401       .  A
C831        S835   1.802       .  S
C832        H836   1.084       .  S
S833        H838   1.407       .  S
S835        H839   1.408       .  S
C841        C842   1.402       .  A
C841        C846   1.397       .  A
C841        H851   1.084       .  S
C842        C847   1.481   1_565  S
C842        C843   1.412       .  A
C843        C844   1.402       .  A
C843        S848   1.804       .  S
C844        C845   1.406       .  A
C844        H849   1.084       .  S
C845        C846   1.416       .  A
C846        S850   1.803       .  S
C847        C852   1.408       .  A
C847        C856   1.402       .  A
S848        H864   1.405   1_565  S
S850        H861   1.408       .  S
C852        C853   1.399       .  A
C852        S857   1.808       .  S
C853        C854   1.407       .  A
C853        H858   1.082       .  S
C854        C855   1.418       .  A
C855        C856   1.402       .  A
C855        S859   1.799       .  S
C856        H860   1.084       .  S
S857        H862   1.407       .  S
S859        H863   1.408       .  S
C865        C866   1.402       .  A
C865        C870   1.401       .  A
C865        H875   1.084       .  S
C866        C871   1.476       .  S
C866        C867   1.410       .  A
C867        C868   1.395       .  A
C867        S872   1.806       .  S
C868        C869   1.405       .  A
C868        H873   1.084       .  S
C869        C870   1.415       .  A
C870        S874   1.802       .  S
C871        C876   1.408       .  A
C871        C880   1.399       .  A
S872        H888   1.405       .  S
S874        H885   1.407       .  S
C876        C877   1.404       .  A
C876        S881   1.806       .  S
C877        C878   1.406       .  A
C877        H882   1.083       .  S
C878        C879   1.415       .  A
C879        C880   1.397       .  A
C879        S883   1.803       .  S
C880        H884   1.084       .  S
S881        H886   1.407       .  S
S883        H887   1.407       .  S
C889        C890   1.400       .  A
C889        C894   1.396       .  A
C889        H899   1.084       .  S
C890        C895   1.476   1_655  S
C890        C891   1.412       .  A
C891        C892   1.401       .  A
C891        S896   1.804       .  S
C892        C893   1.404       .  A
C892        H897   1.084       .  S
C893        C894   1.414       .  A
C894        S898   1.804       .  S
C895        C900   1.408       .  A
C895        C904   1.400       .  A
S896        H912   1.405   1_655  S
S898        H909   1.407       .  S
C900        C901   1.403       .  A
C900        S905   1.806       .  S
C901        C902   1.405       .  A
C901        H906   1.083       .  S
C902        C903   1.415       .  A
C903        C904   1.397       .  A
C903        S907   1.804       .  S
C904        H908   1.084       .  S
S905        H910   1.407       .  S
S907        H911   1.407       .  S
C913        C914   1.402       .  A
C913        C918   1.401       .  A
C913        H923   1.084       .  S
C914        C919   1.482       .  S
C914        C915   1.411       .  A
C915        C916   1.399       .  A
C915        S920   1.804       .  S
C916        C917   1.405       .  A
C916        H921   1.084       .  S
C917        C918   1.416       .  A
C918        S922   1.802       .  S
C919        C924   1.409       .  A
C919        C928   1.403       .  A
S920        H936   1.406       .  S
S922        H933   1.406       .  S
C924        C925   1.402       .  A
C924        S929   1.807       .  S
C925        C926   1.405       .  A
C925        H930   1.083       .  S
C926        C927   1.415       .  A
C927        C928   1.401       .  A
C927        S931   1.802       .  S
C928        H932   1.084       .  S
S929        H934   1.407       .  S
S931        H935   1.407       .  S
C937        C938   1.403       .  A
C937        C942   1.403       .  A
C937        H947   1.084       .  S
C938        C943   1.482       .  S
C938        C939   1.412       .  A
C939        C940   1.397       .  A
C939        S944   1.805       .  S
C940        C941   1.404       .  A
C940        H945   1.084       .  S
C941        C942   1.415       .  A
C942        S946   1.802       .  S
C943        C948   1.410       .  A
C943        C952   1.402       .  A
S944        H960   1.406       .  S
S946        H957   1.407       .  S
C948        C949   1.401       .  A
C948        S953   1.808       .  S
C949        C950   1.405       .  A
C949        H954   1.083       .  S
C950        C951   1.416       .  A
C951        C952   1.402       .  A
C951        S955   1.802       .  S
C952        H956   1.084       .  S
S953        H958   1.407       .  S
S955        H959   1.407       .  S
C961        C962   1.400       .  A
C961        C966   1.396       .  A
C961        H971   1.084       .  S
C962        C967   1.478   1_455  S
C962        C963   1.414       .  A
C963        C964   1.403       .  A
C963        S968   1.807       .  S
C964        C965   1.405       .  A
C964        H969   1.084       .  S
C965        C966   1.415       .  A
C966        S970   1.804       .  S
C967        C972   1.408       .  A
C967        C976   1.399       .  A
S968        H984   1.403   1_455  S
S970        H981   1.407       .  S
C972        C973   1.406       .  A
C972        S977   1.805       .  S
C973        C974   1.407       .  A
C973        H978   1.083       .  S
C974        C975   1.416       .  A
C975        C976   1.397       .  A
C975        S979   1.804       .  S
C976        H980   1.084       .  S
S977        H982   1.407       .  S
S979        H983   1.408       .  S
C985        C986   1.402       .  A
C985        C990   1.402       .  A
C985        H995   1.084       .  S
C986        C991   1.480       .  S
C986        C987   1.409       .  A
C987        C988   1.398       .  A
C987        S992   1.804       .  S
C988        C989   1.408       .  A
C988        H993   1.084       .  S
C989        C990   1.418       .  A
C990        S994   1.801       .  S
C991        C996   1.408       .  A
C991       C1000   1.400       .  A
S992       H1008   1.406       .  S
S994       H1005   1.407       .  S
C996        C997   1.405       .  A
C996       S1001   1.805       .  S
C997        C998   1.406       .  A
C997       H1002   1.082       .  S
C998        C999   1.416       .  A
C999       C1000   1.398       .  A
C999       S1003   1.804       .  S
C1000      H1004   1.084       .  S
S1001      H1006   1.407       .  S
S1003      H1007   1.408       .  S
C1009      C1010   1.401       .  A
C1009      C1014   1.398       .  A
C1009      H1019   1.084       .  S
C1010      C1015   1.481       .  S
C1010      C1011   1.412       .  A
C1011      C1012   1.399       .  A
C1011      S1016   1.804       .  S
C1012      C1013   1.405       .  A
C1012      H1017   1.084       .  S
C1013      C1014   1.417       .  A
C1014      S1018   1.802       .  S
C1015      C1020   1.410       .  A
C1015      C1024   1.402       .  A
S1016      H1032   1.406       .  S
S1018      H1029   1.408       .  S
C1020      C1021   1.404       .  A
C1020      S1025   1.806       .  S
C1021      C1022   1.404       .  A
C1021      H1026   1.083       .  S
C1022      C1023   1.415       .  A
C1023      C1024   1.396       .  A
C1023      S1027   1.804       .  S
C1024      H1028   1.084       .  S
S1025      H1030   1.407       .  S
S1027      H1031   1.407       .  S
C1033      C1034   1.403       .  A
C1033      C1038   1.400       .  A
C1033      H1043   1.084       .  S
C1034      C1039   1.481       .  S
C1034      C1035   1.412       .  A
C1035      C1036   1.398       .  A
C1035      S1040   1.804       .  S
C1036      C1037   1.403       .  A
C1036      H1041   1.084       .  S
C1037      C1038   1.415       .  A
C1038      S1042   1.803       .  S
C1039      C1044   1.409       .  A
C1039      C1048   1.401       .  A
S1040      H1056   1.406       .  S
S1042      H1053   1.407       .  S
C1044      C1045   1.403       .  A
C1044      S1049   1.807       .  S
C1045      C1046   1.407       .  A
C1045      H1050   1.082       .  S
C1046      C1047   1.416       .  A
C1047      C1048   1.400       .  A
C1047      S1051   1.802       .  S
C1048      H1052   1.084       .  S
S1049      H1054   1.407       .  S
S1051      H1055   1.407       .  S
C1057      C1058   1.403       .  A
C1057      C1062   1.400       .  A
C1057      H1067   1.084       .  S
C1058      C1063   1.486       .  S
C1058      C1059   1.413       .  A
C1059      C1060   1.402       .  A
C1059      S1064   1.804       .  S
C1060      C1061   1.406       .  A
C1060      H1065   1.084       .  S
C1061      C1062   1.416       .  A
C1062      S1066   1.803       .  S
C1063      C1068   1.409       .  A
C1063      C1072   1.403       .  A
S1064      H1080   1.406       .  S
S1066      H1077   1.407       .  S
C1068      C1069   1.402       .  A
C1068      S1073   1.808       .  S
C1069      C1070   1.408       .  A
C1069      H1074   1.082       .  S
C1070      C1071   1.420       .  A
C1071      C1072   1.404       .  A
C1071      S1075   1.801       .  S
C1072      H1076   1.084       .  S
S1073      H1078   1.406       .  S
S1075      H1079   1.407       .  S
C1081      C1082   1.404       .  A
C1081      C1086   1.404       .  A
C1081      H1091   1.084       .  S
C1082      C1087   1.487   1_565  S
C1082      C1083   1.412       .  A
C1083      C1084   1.398       .  A
C1083      S1088   1.805       .  S
C1084      C1085   1.407       .  A
C1084      H1089   1.083       .  S
C1085      C1086   1.419       .  A
C1086      S1090   1.801       .  S
C1087      C1092   1.411       .  A
C1087      C1096   1.403       .  A
S1088      H1104   1.406   1_565  S
S1090      H1101   1.408       .  S
C1092      C1093   1.406       .  A
C1092      S1097   1.806       .  S
C1093      C1094   1.406       .  A
C1093      H1098   1.083       .  S
C1094      C1095   1.415       .  A
C1095      C1096   1.398       .  A
C1095      S1099   1.804       .  S
C1096      H1100   1.084       .  S
S1097      H1102   1.407       .  S
S1099      H1103   1.407       .  S
C1105      C1106   1.400       .  A
C1105      C1110   1.398       .  A
C1105      H1115   1.084       .  S
C1106      C1111   1.478       .  S
C1106      C1107   1.411       .  A
C1107      C1108   1.402       .  A
C1107      S1112   1.804       .  S
C1108      C1109   1.406       .  A
C1108      H1113   1.084       .  S
C1109      C1110   1.417       .  A
C1110      S1114   1.804       .  S
C1111      C1116   1.407       .  A
C1111      C1120   1.400       .  A
S1112      H1128   1.404       .  S
S1114      H1125   1.407       .  S
C1116      C1117   1.404       .  A
C1116      S1121   1.806       .  S
C1117      C1118   1.407       .  A
C1117      H1122   1.082       .  S
C1118      C1119   1.417       .  A
C1119      C1120   1.399       .  A
C1119      S1123   1.803       .  S
C1120      H1124   1.084       .  S
S1121      H1126   1.407       .  S
S1123      H1127   1.407       .  S
C1129      C1130   1.403       .  A
C1129      C1134   1.398       .  A
C1129      H1139   1.084       .  S
C1130      C1135   1.483       .  S
C1130      C1131   1.413       .  A
C1131      C1132   1.400       .  A
C1131      S1136   1.804       .  S
C1132      C1133   1.405       .  A
C1132      H1137   1.084       .  S
C1133      C1134   1.414       .  A
C1134      S1138   1.803       .  S
C1135      C1140   1.410       .  A
C1135      C1144   1.404       .  A
S1136      H1152   1.406       .  S
S1138      H1149   1.407       .  S
C1140      C1141   1.399       .  A
C1140      S1145   1.809       .  S
C1141      C1142   1.405       .  A
C1141      H1146   1.083       .  S
C1142      C1143   1.415       .  A
C1143      C1144   1.402       .  A
C1143      S1147   1.802       .  S
C1144      H1148   1.084       .  S
S1145      H1150   1.407       .  S
S1147      H1151   1.407       .  S
C1153      C1154   1.403       .  A
C1153      C1158   1.402       .  A
C1153      H1163   1.084       .  S
C1154      C1159   1.482   1_565  S
C1154      C1155   1.411       .  A
C1155      C1156   1.398       .  A
C1155      S1160   1.804       .  S
C1156      C1157   1.405       .  A
C1156      H1161   1.084       .  S
C1157      C1158   1.416       .  A
C1158      S1162   1.802       .  S
C1159      C1164   1.408       .  A
C1159      C1168   1.400       .  A
S1160      H1176   1.406   1_565  S
S1162      H1173   1.407       .  S
C1164      C1165   1.406       .  A
C1164      S1169   1.805       .  S
C1165      C1166   1.409       .  A
C1165      H1170   1.082       .  S
C1166      C1167   1.418       .  A
C1167      C1168   1.397       .  A
C1167      S1171   1.800       .  S
C1168      H1172   1.084       .  S
S1169      H1174   1.407       .  S
S1171      H1175   1.404       .  S
C1177      C1178   1.402       .  A
C1177      C1182   1.400       .  A
C1177      H1187   1.084       .  S
C1178      C1183   1.477       .  S
C1178      C1179   1.412       .  A
C1179      C1180   1.399       .  A
C1179      S1184   1.806       .  S
C1180      C1181   1.405       .  A
C1180      H1185   1.084       .  S
C1181      C1182   1.414       .  A
C1182      S1186   1.802       .  S
C1183      C1188   1.409       .  A
C1183      C1192   1.397       .  A
S1184      H1200   1.404       .  S
S1186      H1197   1.407       .  S
C1188      C1189   1.408       .  A
C1188      S1193   1.805       .  S
C1189      C1190   1.408       .  A
C1189      H1194   1.083       .  S
C1190      C1191   1.416       .  A
C1191      C1192   1.394       .  A
C1191      S1195   1.801       .  S
C1192      H1196   1.084       .  S
S1193      H1198   1.407       .  S
S1195      H1199   1.405       .  S
C1201      C1202   1.403       .  A
C1201      C1206   1.403       .  A
C1201      H1211   1.084       .  S
C1202      C1207   1.482   1_655  S
C1202      C1203   1.413       .  A
C1203      C1204   1.397       .  A
C1203      S1208   1.806       .  S
C1204      C1205   1.404       .  A
C1204      H1209   1.084       .  S
C1205      C1206   1.416       .  A
C1206      S1210   1.802       .  S
C1207      C1212   1.409       .  A
C1207      C1216   1.402       .  A
S1208      H1224   1.405   1_655  S
S1210      H1221   1.407       .  S
C1212      C1213   1.402       .  A
C1212      S1217   1.807       .  S
C1213      C1214   1.405       .  A
C1213      H1218   1.083       .  S
C1214      C1215   1.415       .  A
C1215      C1216   1.402       .  A
C1215      S1219   1.802       .  S
C1216      H1220   1.084       .  S
S1217      H1222   1.407       .  S
S1219      H1223   1.407       .  S
C1225      C1226   1.402       .  A
C1225      C1230   1.398       .  A
C1225      H1235   1.084       .  S
C1226      C1231   1.478       .  S
C1226      C1227   1.411       .  A
C1227      C1228   1.399       .  A
C1227      S1232   1.804       .  S
C1228      C1229   1.406       .  A
C1228      H1233   1.084       .  S
C1229      C1230   1.415       .  A
C1230      S1234   1.803       .  S
C1231      C1236   1.408       .  A
C1231      C1240   1.401       .  A
S1232      H1248   1.405       .  S
S1234      H1245   1.407       .  S
C1236      C1237   1.400       .  A
C1236      S1241   1.807       .  S
C1237      C1238   1.406       .  A
C1237      H1242   1.083       .  S
C1238      C1239   1.417       .  A
C1239      C1240   1.400       .  A
C1239      S1243   1.801       .  S
C1240      H1244   1.084       .  S
S1241      H1246   1.407       .  S
S1243      H1247   1.407       .  S
C1249      C1250   1.401       .  A
C1249      C1254   1.402       .  A
C1249      H1259   1.084       .  S
C1250      C1255   1.477       .  S
C1250      C1251   1.411       .  A
C1251      C1252   1.396       .  A
C1251      S1256   1.805       .  S
C1252      C1253   1.404       .  A
C1252      H1257   1.084       .  S
C1253      C1254   1.416       .  A
C1254      S1258   1.802       .  S
C1255      C1260   1.407       .  A
C1255      C1264   1.401       .  A
S1256      H1272   1.404       .  S
S1258      H1269   1.407       .  S
C1260      C1261   1.400       .  A
C1260      S1265   1.807       .  S
C1261      C1262   1.406       .  A
C1261      H1266   1.083       .  S
C1262      C1263   1.416       .  A
C1263      C1264   1.402       .  A
C1263      S1267   1.801       .  S
C1264      H1268   1.084       .  S
S1265      H1270   1.407       .  S
S1267      H1271   1.407       .  S
C1273      C1274   1.401       .  A
C1273      C1278   1.398       .  A
C1273      H1283   1.084       .  S
C1274      C1279   1.481       .  S
C1274      C1275   1.412       .  A
C1275      C1276   1.403       .  A
C1275      S1280   1.804       .  S
C1276      C1277   1.407       .  A
C1276      H1281   1.084       .  S
C1277      C1278   1.417       .  A
C1278      S1282   1.803       .  S
C1279      C1284   1.408       .  A
C1279      C1288   1.401       .  A
S1280      H1296   1.405       .  S
S1282      H1293   1.408       .  S
C1284      C1285   1.404       .  A
C1284      S1289   1.806       .  S
C1285      C1286   1.406       .  A
C1285      H1290   1.083       .  S
C1286      C1287   1.417       .  A
C1287      C1288   1.401       .  A
C1287      S1291   1.802       .  S
C1288      H1292   1.084       .  S
S1289      H1294   1.407       .  S
S1291      H1295   1.408       .  S
C1297      C1298   1.402       .  A
C1297      C1302   1.402       .  A
C1297      H1307   1.084       .  S
C1298      C1303   1.477   1_655  S
C1298      C1299   1.411       .  A
C1299      C1300   1.396       .  A
C1299      S1304   1.806       .  S
C1300      C1301   1.404       .  A
C1300      H1305   1.084       .  S
C1301      C1302   1.416       .  A
C1302      S1306   1.802       .  S
C1303      C1308   1.406       .  A
C1303      C1312   1.401       .  A
S1304      H1320   1.403   1_655  S
S1306      H1317   1.408       .  S
C1308      C1309   1.401       .  A
C1308      S1313   1.807       .  S
C1309      C1310   1.407       .  A
C1309      H1314   1.082       .  S
C1310      C1311   1.418       .  A
C1311      C1312   1.401       .  A
C1311      S1315   1.801       .  S
C1312      H1316   1.084       .  S
S1313      H1318   1.407       .  S
S1315      H1319   1.408       .  S
C1321      C1322   1.403       .  A
C1321      C1326   1.397       .  A
C1321      H1331   1.084       .  S
C1322      C1327   1.482       .  S
C1322      C1323   1.413       .  A
C1323      C1324   1.401       .  A
C1323      S1328   1.804       .  S
C1324      C1325   1.405       .  A
C1324      H1329   1.084       .  S
C1325      C1326   1.414       .  A
C1326      S1330   1.804       .  S
C1327      C1332   1.409       .  A
C1327      C1336   1.402       .  A
S1328      H1344   1.406       .  S
S1330      H1341   1.407       .  S
C1332      C1333   1.400       .  A
C1332      S1337   1.808       .  S
C1333      C1334   1.408       .  A
C1333      H1338   1.082       .  S
C1334      C1335   1.419       .  A
C1335      C1336   1.401       .  A
C1335      S1339   1.801       .  S
C1336      H1340   1.084       .  S
S1337      H1342   1.407       .  S
S1339      H1343   1.408       .  S
C1345      C1346   1.403       .  A
C1345      C1350   1.401       .  A
C1345      H1355   1.084       .  S
C1346      C1351   1.480       .  S
C1346      C1347   1.411       .  A
C1347      C1348   1.400       .  A
C1347      S1352   1.805       .  S
C1348      C1349   1.405       .  A
C1348      H1353   1.084       .  S
C1349      C1350   1.415       .  A
C1350      S1354   1.803       .  S
C1351      C1356   1.408       .  A
C1351      C1360   1.401       .  A
S1352      H1368   1.404       .  S
S1354      H1365   1.407       .  S
C1356      C1357   1.403       .  A
C1356      S1361   1.807       .  S
C1357      C1358   1.407       .  A
C1357      H1362   1.082       .  S
C1358      C1359   1.417       .  A
C1359      C1360   1.402       .  A
C1359      S1363   1.801       .  S
C1360      H1364   1.084       .  S
S1361      H1366   1.407       .  S
S1363      H1367   1.407       .  S
C1369      C1370   1.403       .  A
C1369      C1374   1.399       .  A
C1369      H1379   1.084       .  S
C1370      C1375   1.485       .  S
C1370      C1371   1.413       .  A
C1371      C1372   1.400       .  A
C1371      S1376   1.805       .  S
C1372      C1373   1.407       .  A
C1372      H1377   1.084       .  S
C1373      C1374   1.416       .  A
C1374      S1378   1.801       .  S
C1375      C1380   1.411       .  A
C1375      C1384   1.402       .  A
S1376      H1392   1.406       .  S
S1378      H1389   1.407       .  S
C1380      C1381   1.404       .  A
C1380      S1385   1.807       .  S
C1381      C1382   1.404       .  A
C1381      H1386   1.083       .  S
C1382      C1383   1.415       .  A
C1383      C1384   1.398       .  A
C1383      S1387   1.804       .  S
C1384      H1388   1.084       .  S
S1385      H1390   1.407       .  S
S1387      H1391   1.407       .  S
C1393      C1394   1.401       .  A
C1393      C1398   1.398       .  A
C1393      H1403   1.084       .  S
C1394      C1399   1.481   1_655  S
C1394      C1395   1.413       .  A
C1395      C1396   1.403       .  A
C1395      S1400   1.803       .  S
C1396      C1397   1.405       .  A
C1396      H1401   1.084       .  S
C1397      C1398   1.415       .  A
C1398      S1402   1.804       .  S
C1399      C1404   1.408       .  A
C1399      C1408   1.401       .  A
S1400      H1416   1.405       .  S
S1402      H1413   1.407       .  S
C1404      C1405   1.403       .  A
C1404      S1409   1.807   1_455  S
C1405      C1406   1.407       .  A
C1405      H1410   1.083       .  S
C1406      C1407   1.417       .  A
C1407      C1408   1.402       .  A
C1407      S1411   1.801       .  S
C1408      H1412   1.084       .  S
S1409      H1414   1.407   1_655  S
S1411      H1415   1.407       .  S
C1417      C1418   1.404       .  A
C1417      C1422   1.402       .  A
C1417      H1427   1.084       .  S
C1418      C1423   1.486       .  S
C1418      C1419   1.413       .  A
C1419      C1420   1.399       .  A
C1419      S1424   1.805       .  S
C1420      C1421   1.406       .  A
C1420      H1425   1.084       .  S
C1421      C1422   1.416       .  A
C1422      S1426   1.801       .  S
C1423      C1428   1.410       .  A
C1423      C1432   1.402       .  A
S1424      H1440   1.406       .  S
S1426      H1437   1.407       .  S
C1428      C1429   1.404       .  A
C1428      S1433   1.807       .  S
C1429      C1430   1.406       .  A
C1429      H1434   1.082       .  S
C1430      C1431   1.417       .  A
C1431      C1432   1.400       .  A
C1431      S1435   1.802       .  S
C1432      H1436   1.084       .  S
S1433      H1438   1.407       .  S
S1435      H1439   1.407       .  S
C1441      C1442   1.403       .  A
C1441      C1446   1.401       .  A
C1441      H1451   1.084       .  S
C1442      C1447   1.480       .  S
C1442      C1443   1.411       .  A
C1443      C1444   1.396       .  A
C1443      S1448   1.805       .  S
C1444      C1445   1.404       .  A
C1444      H1449   1.084       .  S
C1445      C1446   1.416       .  A
C1446      S1450   1.802       .  S
C1447      C1452   1.408       .  A
C1447      C1456   1.401       .  A
S1448      H1464   1.406       .  S
S1450      H1461   1.407       .  S
C1452      C1453   1.402       .  A
C1452      S1457   1.807       .  S
C1453      C1454   1.407       .  A
C1453      H1458   1.083       .  S
C1454      C1455   1.416       .  A
C1455      C1456   1.402       .  A
C1455      S1459   1.809       .  S
C1456      H1460   1.083       .  S
S1457      H1462   1.407       .  S
S1459      H1463   1.407       .  S
C1465      C1466   1.401       .  A
C1465      C1470   1.400       .  A
C1465      H1475   1.084       .  S
C1466      C1471   1.475       .  S
C1466      C1467   1.411       .  A
C1467      C1468   1.396       .  A
C1467      S1472   1.806       .  S
C1468      C1469   1.404       .  A
C1468      H1473   1.084       .  S
C1469      C1470   1.416       .  A
C1470      S1474   1.802       .  S
C1471      C1476   1.407       .  A
C1471      C1480   1.400       .  A
S1472      H1488   1.404       .  S
S1474      H1485   1.407       .  S
C1476      C1477   1.400       .  A
C1476      S1481   1.807       .  S
C1477      C1478   1.406       .  A
C1477      H1482   1.083       .  S
C1478      C1479   1.417       .  A
C1479      C1480   1.400       .  A
C1479      S1483   1.801       .  S
C1480      H1484   1.084       .  S
S1481      H1486   1.407       .  S
S1483      H1487   1.408       .  S
C1489      C1490   1.404       .  A
C1489      C1494   1.400       .  A
C1489      H1499   1.084       .  S
C1490      C1495   1.486       .  S
C1490      C1491   1.413       .  A
C1491      C1492   1.400       .  A
C1491      S1496   1.804       .  S
C1492      C1493   1.405       .  A
C1492      H1497   1.084       .  S
C1493      C1494   1.416       .  A
C1494      S1498   1.802       .  S
C1495      C1500   1.411       .  A
C1495      C1504   1.401       .  A
S1496      H1512   1.406       .  S
S1498      H1509   1.408       .  S
C1500      C1501   1.406       .  A
C1500      S1505   1.807       .  S
C1501      C1502   1.408       .  A
C1501      H1506   1.083       .  S
C1502      C1503   1.419       .  A
C1503      C1504   1.397       .  A
C1503      S1507   1.802       .  S
C1504      H1508   1.084       .  S
S1505      H1510   1.407       .  S
S1507      H1511   1.406       .  S
C1513      C1514   1.403       .  A
C1513      C1518   1.402       .  A
C1513      H1523   1.084       .  S
C1514      C1519   1.482       .  S
C1514      C1515   1.411       .  A
C1515      C1516   1.399       .  A
C1515      S1520   1.804       .  S
C1516      C1517   1.405       .  A
C1516      H1521   1.084       .  S
C1517      C1518   1.416       .  A
C1518      S1522   1.802       .  S
C1519      C1524   1.408       .  A
C1519      C1528   1.403       .  A
S1520      H1536   1.406       .  S
S1522      H1533   1.407       .  S
C1524      C1525   1.401       .  A
C1524      S1529   1.807       .  S
C1525      C1526   1.405       .  A
C1525      H1530   1.083       .  S
C1526      C1527   1.416       .  A
C1527      C1528   1.403       .  A
C1527      S1531   1.802       .  S
C1528      H1532   1.084       .  S
S1529      H1534   1.407       .  S
S1531      H1535   1.407       .  S
C1537      C1538   1.402       .  A
C1537      C1542   1.399       .  A
C1537      H1547   1.084       .  S
C1538      C1543   1.479       .  S
C1538      C1539   1.411       .  A
C1539      C1540   1.401       .  A
C1539      S1544   1.803       .  S
C1540      C1541   1.404       .  A
C1540      H1545   1.084       .  S
C1541      C1542   1.414       .  A
C1542      S1546   1.804       .  S
C1543      C1548   1.408       .  A
C1543      C1552   1.401       .  A
S1544      H1560   1.406       .  S
S1546      H1557   1.407       .  S
C1548      C1549   1.404       .  A
C1548      S1553   1.806       .  S
C1549      C1550   1.405       .  A
C1549      H1554   1.083       .  S
C1550      C1551   1.415       .  A
C1551      C1552   1.398       .  A
C1551      S1555   1.804       .  S
C1552      H1556   1.084       .  S
S1553      H1558   1.407       .  S
S1555      H1559   1.407       .  S
C1561      C1562   1.401       .  A
C1561      C1566   1.399       .  A
C1561      H1571   1.084       .  S
C1562      C1567   1.480       .  S
C1562      C1563   1.412       .  A
C1563      C1564   1.402       .  A
C1563      S1568   1.804       .  S
C1564      C1565   1.405       .  A
C1564      H1569   1.084       .  S
C1565      C1566   1.416       .  A
C1566      S1570   1.803       .  S
C1567      C1572   1.409   1_655  A
C1567      C1576   1.400   1_655  A
S1568      H1584   1.405       .  S
S1570      H1581   1.407       .  S
C1572      C1573   1.406       .  A
C1572      S1577   1.806       .  S
C1573      C1574   1.406       .  A
C1573      H1578   1.083       .  S
C1574      C1575   1.416       .  A
C1575      C1576   1.399       .  A
C1575      S1579   1.804       .  S
C1576      H1580   1.084   1_455  S
S1577      H1582   1.407       .  S
S1579      H1583   1.407       .  S
C1585      C1586   1.403       .  A
C1585      C1590   1.397       .  A
C1585      H1595   1.084       .  S
C1586      C1591   1.486       .  S
C1586      C1587   1.413       .  A
C1587      C1588   1.402       .  A
C1587      S1592   1.803       .  S
C1588      C1589   1.405       .  A
C1588      H1593   1.084       .  S
C1589      C1590   1.416       .  A
C1590      S1594   1.803       .  S
C1591      C1596   1.410       .  A
C1591      C1600   1.403       .  A
S1592      H1608   1.406       .  S
S1594      H1605   1.407       .  S
C1596      C1597   1.402       .  A
C1596      S1601   1.808       .  S
C1597      C1598   1.406       .  A
C1597      H1602   1.082       .  S
C1598      C1599   1.417       .  A
C1599      C1600   1.401       .  A
C1599      S1603   1.801       .  S
C1600      H1604   1.084       .  S
S1601      H1606   1.407       .  S
S1603      H1607   1.407       .  S
C1609      C1610   1.404       .  A
C1609      C1614   1.400       .  A
C1609      H1619   1.084       .  S
C1610      C1615   1.482   1_554  S
C1610      C1611   1.412       .  A
C1611      C1612   1.397       .  A
C1611      S1616   1.804       .  S
C1612      C1613   1.402       .  A
C1612      H1617   1.084       .  S
C1613      C1614   1.413       .  A
C1614      S1618   1.803       .  S
C1615      C1620   1.408       .  A
C1615      C1624   1.401       .  A
S1616      H1632   1.407   1_554  S
S1618      H1629   1.406       .  S
C1620      C1621   1.405       .  A
C1620      S1625   1.806       .  S
C1621      C1622   1.409       .  A
C1621      H1626   1.082       .  S
C1622      C1623   1.419       .  A
C1623      C1624   1.397       .  A
C1623      S1627   1.802       .  S
C1624      H1628   1.084       .  S
S1625      H1630   1.407       .  S
S1627      H1631   1.408       .  S
C1633      C1634   1.401       .  A
C1633      C1638   1.401       .  A
C1633      H1643   1.084       .  S
C1634      C1639   1.477       .  S
C1634      C1635   1.411       .  A
C1635      C1636   1.396       .  A
C1635      S1640   1.805       .  S
C1636      C1637   1.404       .  A
C1636      H1641   1.084       .  S
C1637      C1638   1.417       .  A
C1638      S1642   1.802       .  S
C1639      C1644   1.408       .  A
C1639      C1648   1.401       .  A
S1640      H1656   1.406       .  S
S1642      H1653   1.407       .  S
C1644      C1645   1.399       .  A
C1644      S1649   1.808       .  S
C1645      C1646   1.406       .  A
C1645      H1650   1.083       .  S
C1646      C1647   1.416       .  A
C1647      C1648   1.401       .  A
C1647      S1651   1.801       .  S
C1648      H1652   1.084       .  S
S1649      H1654   1.407       .  S
S1651      H1655   1.408       .  S
C1657      C1658   1.401       .  A
C1657      C1662   1.399       .  A
C1657      H1667   1.084       .  S
C1658      C1663   1.483       .  S
C1658      C1659   1.413       .  A
C1659      C1660   1.401       .  A
C1659      S1664   1.804       .  S
C1660      C1661   1.407       .  A
C1660      H1665   1.084       .  S
C1661      C1662   1.417       .  A
C1662      S1666   1.802       .  S
C1663      C1668   1.410       .  A
C1663      C1672   1.401       .  A
S1664      H1680   1.406       .  S
S1666      H1677   1.408       .  S
C1668      C1669   1.403       .  A
C1668      S1673   1.807       .  S
C1669      C1670   1.405       .  A
C1669      H1674   1.082       .  S
C1670      C1671   1.417       .  A
C1671      C1672   1.401       .  A
C1671      S1675   1.803       .  S
C1672      H1676   1.084       .  S
S1673      H1678   1.407       .  S
S1675      H1679   1.408       .  S
C1681      C1682   1.400       .  A
C1681      C1686   1.397       .  A
C1681      H1691   1.084       .  S
C1682      C1687   1.479       .  S
C1682      C1683   1.412       .  A
C1683      C1684   1.402       .  A
C1683      S1688   1.804       .  S
C1684      C1685   1.406       .  A
C1684      H1689   1.084       .  S
C1685      C1686   1.415       .  A
C1686      S1690   1.803       .  S
C1687      C1692   1.408       .  A
C1687      C1696   1.402       .  A
S1688      H1704   1.405       .  S
S1690      H1701   1.407       .  S
C1692      C1693   1.402       .  A
C1692      S1697   1.806       .  S
C1693      C1694   1.405       .  A
C1693      H1698   1.083       .  S
C1694      C1695   1.414       .  A
C1695      C1696   1.400       .  A
C1695      S1699   1.802       .  S
C1696      H1700   1.084       .  S
S1697      H1702   1.407       .  S
S1699      H1703   1.407       .  S
C1705      C1706   1.400       .  A
C1705      C1710   1.396       .  A
C1705      H1715   1.084       .  S
C1706      C1711   1.479   1_556  S
C1706      C1707   1.413       .  A
C1707      C1708   1.402       .  A
C1707      S1712   1.804       .  S
C1708      C1709   1.405       .  A
C1708      H1713   1.084       .  S
C1709      C1710   1.413       .  A
C1710      S1714   1.802       .  S
C1711      C1716   1.409       .  A
C1711      C1720   1.401       .  A
S1712      H1728   1.406       .  S
S1714      H1725   1.407       .  S
C1716      C1717   1.401       .  A
C1716      S1721   1.808       .  S
C1717      C1718   1.406       .  A
C1717      H1722   1.083       .  S
C1718      C1719   1.415       .  A
C1719      C1720   1.399       .  A
C1719      S1723   1.802       .  S
C1720      H1724   1.084       .  S
S1721      H1726   1.407       .  S
S1723      H1727   1.407       .  S
C1729      C1730   1.401       .  A
C1729      C1734   1.396       .  A
C1729      H1739   1.084       .  S
C1730      C1735   1.479       .  S
C1730      C1731   1.412       .  A
C1731      C1732   1.402       .  A
C1731      S1736   1.804       .  S
C1732      C1733   1.407       .  A
C1732      H1737   1.084       .  S
C1733      C1734   1.415       .  A
C1734      S1738   1.803       .  S
C1735      C1740   1.409       .  A
C1735      C1744   1.401       .  A
S1736      H1752   1.405       .  S
S1738      H1749   1.408       .  S
C1740      C1741   1.402       .  A
C1740      S1745   1.806       .  S
C1741      C1742   1.405       .  A
C1741      H1746   1.083       .  S
C1742      C1743   1.417       .  A
C1743      C1744   1.399       .  A
C1743      S1747   1.802       .  S
C1744      H1748   1.084       .  S
S1745      H1750   1.407       .  S
S1747      H1751   1.408       .  S
C1753      C1754   1.403       .  A
C1753      C1758   1.404       .  A
C1753      H1763   1.083       .  S
C1754      C1759   1.484       .  S
C1754      C1755   1.411       .  A
C1755      C1756   1.399       .  A
C1755      S1760   1.803       .  S
C1756      C1757   1.405       .  A
C1756      H1761   1.084       .  S
C1757      C1758   1.416       .  A
C1758      S1762   1.809       .  S
C1759      C1764   1.410       .  A
C1759      C1768   1.403       .  A
S1760      H1776   1.406       .  S
S1762      H1773   1.407       .  S
C1764      C1765   1.402       .  A
C1764      S1769   1.808       .  S
C1765      C1766   1.406       .  A
C1765      H1770   1.083       .  S
C1766      C1767   1.416       .  A
C1767      C1768   1.401       .  A
C1767      S1771   1.801       .  S
C1768      H1772   1.084       .  S
S1769      H1774   1.407       .  S
S1771      H1775   1.407       .  S
C1777      C1778   1.401       .  A
C1777      C1782   1.398       .  A
C1777      H1787   1.084       .  S
C1778      C1783   1.485       .  S
C1778      C1779   1.412       .  A
C1779      C1780   1.402       .  A
C1779      S1784   1.803       .  S
C1780      C1781   1.407       .  A
C1780      H1785   1.084       .  S
C1781      C1782   1.418       .  A
C1782      S1786   1.800       .  S
C1783      C1788   1.410       .  A
C1783      C1792   1.403       .  A
S1784      H1800   1.406       .  S
S1786      H1797   1.408       .  S
C1788      C1789   1.403       .  A
C1788      S1793   1.807       .  S
C1789      C1790   1.404       .  A
C1789      H1794   1.083       .  S
C1790      C1791   1.416       .  A
C1791      C1792   1.401       .  A
C1791      S1795   1.803       .  S
C1792      H1796   1.084       .  S
S1793      H1798   1.407       .  S
S1795      H1799   1.407       .  S
C1801      C1802   1.402       .  A
C1801      C1806   1.401       .  A
C1801      H1811   1.084       .  S
C1802      C1807   1.476   1_655  S
C1802      C1803   1.411       .  A
C1803      C1804   1.396       .  A
C1803      S1808   1.806       .  S
C1804      C1805   1.405       .  A
C1804      H1809   1.084       .  S
C1805      C1806   1.415       .  A
C1806      S1810   1.801       .  S
C1807      C1812   1.409       .  A
C1807      C1816   1.400       .  A
S1808      H1824   1.405   1_655  S
S1810      H1821   1.407       .  S
C1812      C1813   1.401       .  A
C1812      S1817   1.807       .  S
C1813      C1814   1.405       .  A
C1813      H1818   1.083       .  S
C1814      C1815   1.415       .  A
C1815      C1816   1.399       .  A
C1815      S1819   1.802       .  S
C1816      H1820   1.084       .  S
S1817      H1822   1.407       .  S
S1819      H1823   1.407       .  S
C1825      C1826   1.401       .  A
C1825      C1830   1.399       .  A
C1825      H1835   1.084       .  S
C1826      C1831   1.479       .  S
C1826      C1827   1.410       .  A
C1827      C1828   1.400       .  A
C1827      S1832   1.804       .  S
C1828      C1829   1.407       .  A
C1828      H1833   1.084       .  S
C1829      C1830   1.416       .  A
C1830      S1834   1.802       .  S
C1831      C1836   1.409       .  A
C1831      C1840   1.401       .  A
S1832      H1848   1.406       .  S
S1834      H1845   1.407       .  S
C1836      C1837   1.403       .  A
C1836      S1841   1.806       .  S
C1837      C1838   1.404       .  A
C1837      H1842   1.083       .  S
C1838      C1839   1.414       .  A
C1839      C1840   1.400       .  A
C1839      S1843   1.802       .  S
C1840      H1844   1.084       .  S
S1841      H1846   1.407       .  S
S1843      H1847   1.407       .  S
C1849      C1850   1.400       .  A
C1849      C1854   1.397       .  A
C1849      H1859   1.084       .  S
C1850      C1855   1.479       .  S
C1850      C1851   1.412       .  A
C1851      C1852   1.403       .  A
C1851      S1856   1.803       .  S
C1852      C1853   1.405       .  A
C1852      H1857   1.084       .  S
C1853      C1854   1.413       .  A
C1854      S1858   1.800       .  S
C1855      C1860   1.408       .  A
C1855      C1864   1.400       .  A
S1856      H1872   1.405       .  S
S1858      H1869   1.407       .  S
C1860      C1861   1.404       .  A
C1860      S1865   1.806       .  S
C1861      C1862   1.406       .  A
C1861      H1866   1.083       .  S
C1862      C1863   1.416       .  A
C1863      C1864   1.399       .  A
C1863      S1867   1.803       .  S
C1864      H1868   1.084       .  S
S1865      H1870   1.407       .  S
S1867      H1871   1.407       .  S
C1873      C1874   1.401       .  A
C1873      C1878   1.400       .  A
C1873      H1883   1.084       .  S
C1874      C1879   1.479       .  S
C1874      C1875   1.411       .  A
C1875      C1876   1.400       .  A
C1875      S1880   1.804       .  S
C1876      C1877   1.406       .  A
C1876      H1881   1.084       .  S
C1877      C1878   1.416       .  A
C1878      S1882   1.802       .  S
C1879      C1884   1.408       .  A
C1879      C1888   1.402       .  A
S1880      H1896   1.405       .  S
S1882      H1893   1.407       .  S
C1884      C1885   1.401       .  A
C1884      S1889   1.807       .  S
C1885      C1886   1.404       .  A
C1885      H1890   1.083       .  S
C1886      C1887   1.416       .  A
C1887      C1888   1.402       .  A
C1887      S1891   1.803       .  S
C1888      H1892   1.084       .  S
S1889      H1894   1.407       .  S
S1891      H1895   1.407       .  S
C1897      C1898   1.402       .  A
C1897      C1902   1.398       .  A
C1897      H1907   1.084       .  S
C1898      C1903   1.483       .  S
C1898      C1899   1.412       .  A
C1899      C1900   1.402       .  A
C1899      S1904   1.803       .  S
C1900      C1901   1.405       .  A
C1900      H1905   1.084       .  S
C1901      C1902   1.416       .  A
C1902      S1906   1.804       .  S
C1903      C1908   1.409       .  A
C1903      C1912   1.403       .  A
S1904      H1920   1.406       .  S
S1906      H1917   1.408       .  S
C1908      C1909   1.401       .  A
C1908      S1913   1.807       .  S
C1909      C1910   1.406       .  A
C1909      H1914   1.082       .  S
C1910      C1911   1.417       .  A
C1911      C1912   1.402       .  A
C1911      S1915   1.801       .  S
C1912      H1916   1.084       .  S
S1913      H1918   1.407       .  S
S1915      H1919   1.407       .  S
C1921      C1922   1.400       .  A
C1921      C1926   1.397       .  A
C1921      H1931   1.084       .  S
C1922      C1927   1.478   1_655  S
C1922      C1923   1.412       .  A
C1923      C1924   1.401       .  A
C1923      S1928   1.804       .  S
C1924      C1925   1.405       .  A
C1924      H1929   1.084       .  S
C1925      C1926   1.415       .  A
C1926      S1930   1.800       .  S
C1927      C1932   1.409       .  A
C1927      C1936   1.399       .  A
S1928      H1944   1.405   1_655  S
S1930      H1941   1.406       .  S
C1932      C1933   1.405       .  A
C1932      S1937   1.806       .  S
C1933      C1934   1.406       .  A
C1933      H1938   1.083       .  S
C1934      C1935   1.416       .  A
C1935      C1936   1.397       .  A
C1935      S1939   1.804       .  S
C1936      H1940   1.084       .  S
S1937      H1942   1.407       .  S
S1939      H1943   1.408       .  S
C1945      C1946   1.403       .  A
C1945      C1950   1.398       .  A
C1945      H1955   1.084       .  S
C1946      C1951   1.481       .  S
C1946      C1947   1.413       .  A
C1947      C1948   1.400       .  A
C1947      S1952   1.804       .  S
C1948      C1949   1.403       .  A
C1948      H1953   1.084       .  S
C1949      C1950   1.413       .  A
C1950      S1954   1.804       .  S
C1951      C1956   1.410       .  A
C1951      C1960   1.402       .  A
S1952      H1968   1.406       .  S
S1954      H1965   1.407       .  S
C1956      C1957   1.404       .  A
C1956      S1961   1.807       .  S
C1957      C1958   1.404       .  A
C1957      H1962   1.083       .  S
C1958      C1959   1.414       .  A
C1959      C1960   1.398       .  A
C1959      S1963   1.804       .  S
C1960      H1964   1.084       .  S
S1961      H1966   1.407       .  S
S1963      H1967   1.407       .  S
C1969      C1970   1.404       .  A
C1969      C1974   1.400       .  A
C1969      H1979   1.084       .  S
C1970      C1975   1.485       .  S
C1970      C1971   1.413       .  A
C1971      C1972   1.399       .  A
C1971      S1976   1.804       .  S
C1972      C1973   1.406       .  A
C1972      H1977   1.084       .  S
C1973      C1974   1.416       .  A
C1974      S1978   1.802       .  S
C1975      C1980   1.410       .  A
C1975      C1984   1.403       .  A
S1976      H1992   1.406       .  S
S1978      H1989   1.407       .  S
C1980      C1981   1.400       .  A
C1980      S1985   1.809       .  S
C1981      C1982   1.408       .  A
C1981      H1986   1.082       .  S
C1982      C1983   1.419       .  A
C1983      C1984   1.402       .  A
C1983      S1987   1.800       .  S
C1984      H1988   1.084       .  S
S1985      H1990   1.407       .  S
S1987      H1991   1.408       .  S
C1993      C1994   1.403       .  A
C1993      C1998   1.401       .  A
C1993      H2003   1.084       .  S
C1994      C1999   1.482   1_556  S
C1994      C1995   1.412       .  A
C1995      C1996   1.400       .  A
C1995      S2000   1.803       .  S
C1996      C1997   1.404       .  A
C1996      H2001   1.084       .  S
C1997      C1998   1.415       .  A
C1998      S2002   1.804       .  S
C1999      C2004   1.409       .  A
C1999      C2008   1.401       .  A
S2000      H2016   1.406   1_556  S
S2002      H2013   1.407       .  S
C2004      C2005   1.405       .  A
C2004      S2009   1.806       .  S
C2005      C2006   1.406       .  A
C2005      H2010   1.083       .  S
C2006      C2007   1.416       .  A
C2007      C2008   1.399       .  A
C2007      S2011   1.803       .  S
C2008      H2012   1.084       .  S
S2009      H2014   1.407       .  S
S2011      H2015   1.407       .  S
C2017      C2018   1.402       .  A
C2017      C2022   1.400       .  A
C2017      H2027   1.084       .  S
C2018      C2023   1.483       .  S
C2018      C2019   1.412       .  A
C2019      C2020   1.400       .  A
C2019      S2024   1.803       .  S
C2020      C2021   1.405       .  A
C2020      H2025   1.084       .  S
C2021      C2022   1.416       .  A
C2022      S2026   1.802       .  S
C2023      C2028   1.410       .  A
C2023      C2032   1.401       .  A
S2024      H2040   1.406       .  S
S2026      H2037   1.405       .  S
C2028      C2029   1.406       .  A
C2028      S2033   1.806       .  S
C2029      C2030   1.407       .  A
C2029      H2034   1.082       .  S
C2030      C2031   1.416       .  A
C2031      C2032   1.398       .  A
C2031      S2035   1.803       .  S
C2032      H2036   1.084       .  S
S2033      H2038   1.407       .  S
S2035      H2039   1.408       .  S
C2041      C2042   1.401       .  A
C2041      C2046   1.400       .  A
C2041      H2051   1.084       .  S
C2042      C2047   1.479       .  S
C2042      C2043   1.412       .  A
C2043      C2044   1.400       .  A
C2043      S2048   1.804       .  S
C2044      C2045   1.404       .  A
C2044      H2049   1.084       .  S
C2045      C2046   1.415       .  A
C2046      S2050   1.804       .  S
C2047      C2052   1.407       .  A
C2047      C2056   1.402       .  A
S2048      H2064   1.405       .  S
S2050      H2061   1.407       .  S
C2052      C2053   1.400       .  A
C2052      S2057   1.808       .  S
C2053      C2054   1.407       .  A
C2053      H2058   1.082       .  S
C2054      C2055   1.418       .  A
C2055      C2056   1.403       .  A
C2055      S2059   1.801       .  S
C2056      H2060   1.084       .  S
S2057      H2062   1.407       .  S
S2059      H2063   1.407       .  S
C2065      C2066   1.403       .  A
C2065      C2070   1.400       .  A
C2065      H2075   1.084       .  S
C2066      C2071   1.481       .  S
C2066      C2067   1.411       .  A
C2067      C2068   1.399       .  A
C2067      S2072   1.804       .  S
C2068      C2069   1.405       .  A
C2068      H2073   1.084       .  S
C2069      C2070   1.416       .  A
C2070      S2074   1.803       .  S
C2071      C2076   1.409       .  A
C2071      C2080   1.402       .  A
S2072      H2088   1.406       .  S
S2074      H2085   1.407       .  S
C2076      C2077   1.402       .  A
C2076      S2081   1.808       .  S
C2077      C2078   1.406       .  A
C2077      H2082   1.083       .  S
C2078      C2079   1.416       .  A
C2079      C2080   1.401       .  A
C2079      S2083   1.802       .  S
C2080      H2084   1.084       .  S
S2081      H2086   1.407       .  S
S2083      H2087   1.407       .  S
C2089      C2090   1.403       .  A
C2089      C2094   1.401       .  A
C2089      H2099   1.084       .  S
C2090      C2095   1.484       .  S
C2090      C2091   1.413       .  A
C2091      C2092   1.400       .  A
C2091      S2096   1.805       .  S
C2092      C2093   1.405       .  A
C2092      H2097   1.084       .  S
C2093      C2094   1.417       .  A
C2094      S2098   1.803       .  S
C2095      C2100   1.410       .  A
C2095      C2104   1.401       .  A
S2096      H2112   1.405       .  S
S2098      H2109   1.407       .  S
C2100      C2101   1.405       .  A
C2100      S2105   1.806       .  S
C2101      C2102   1.407       .  A
C2101      H2106   1.083       .  S
C2102      C2103   1.418       .  A
C2103      C2104   1.399       .  A
C2103      S2107   1.802       .  S
C2104      H2108   1.084       .  S
S2105      H2110   1.407       .  S
S2107      H2111   1.407       .  S
C2113      C2114   1.401       .  A
C2113      C2118   1.399       .  A
C2113      H2123   1.084       .  S
C2114      C2119   1.481   1_556  S
C2114      C2115   1.413       .  A
C2115      C2116   1.403       .  A
C2115      S2120   1.804       .  S
C2116      C2117   1.405       .  A
C2116      H2121   1.084       .  S
C2117      C2118   1.415       .  A
C2118      S2122   1.804       .  S
C2119      C2124   1.409       .  A
C2119      C2128   1.400       .  A
S2120      H2136   1.405   1_556  S
S2122      H2133   1.407       .  S
C2124      C2125   1.405       .  A
C2124      S2129   1.806       .  S
C2125      C2126   1.405       .  A
C2125      H2130   1.083       .  S
C2126      C2127   1.416       .  A
C2127      C2128   1.399       .  A
C2127      S2131   1.803       .  S
C2128      H2132   1.084       .  S
S2129      H2134   1.407       .  S
S2131      H2135   1.407       .  S
C2137      C2138   1.402       .  A
C2137      C2142   1.402       .  A
C2137      H2147   1.084       .  S
C2138      C2143   1.481       .  S
C2138      C2139   1.411       .  A
C2139      C2140   1.399       .  A
C2139      S2144   1.804       .  S
C2140      C2141   1.406       .  A
C2140      H2145   1.084       .  S
C2141      C2142   1.417       .  A
C2142      S2146   1.801       .  S
C2143      C2148   1.408       .  A
C2143      C2152   1.401       .  A
S2144      H2160   1.405       .  S
S2146      H2157   1.407       .  S
C2148      C2149   1.402       .  A
C2148      S2153   1.807       .  S
C2149      C2150   1.407       .  A
C2149      H2154   1.083       .  S
C2150      C2151   1.417       .  A
C2151      C2152   1.403       .  A
C2151      S2155   1.801       .  S
C2152      H2156   1.084       .  S
S2153      H2158   1.407       .  S
S2155      H2159   1.407       .  S
C2161      C2162   1.402       .  A
C2161      C2166   1.399       .  A
C2161      H2171   1.084       .  S
C2162      C2167   1.486       .  S
C2162      C2163   1.414       .  A
C2163      C2164   1.403       .  A
C2163      S2168   1.804       .  S
C2164      C2165   1.406       .  A
C2164      H2169   1.084       .  S
C2165      C2166   1.415       .  A
C2166      S2170   1.802       .  S
C2167      C2172   1.411       .  A
C2167      C2176   1.401       .  A
S2168      H2184   1.406       .  S
S2170      H2181   1.408       .  S
C2172      C2173   1.408       .  A
C2172      S2177   1.806       .  S
C2173      C2174   1.407       .  A
C2173      H2178   1.083       .  S
C2174      C2175   1.416       .  A
C2175      C2176   1.398       .  A
C2175      S2179   1.803       .  S
C2176      H2180   1.084       .  S
S2177      H2182   1.407       .  S
S2179      H2183   1.408       .  S
C2185      C2186   1.402       .  A
C2185      C2190   1.398       .  A
C2185      H2195   1.084       .  S
C2186      C2191   1.484       .  S
C2186      C2187   1.413       .  A
C2187      C2188   1.401       .  A
C2187      S2192   1.804       .  S
C2188      C2189   1.406       .  A
C2188      H2193   1.084       .  S
C2189      C2190   1.416       .  A
C2190      S2194   1.802       .  S
C2191      C2196   1.411       .  A
C2191      C2200   1.402       .  A
S2192      H2208   1.406       .  S
S2194      H2205   1.408       .  S
C2196      C2197   1.404       .  A
C2196      S2201   1.807       .  S
C2197      C2198   1.406       .  A
C2197      H2202   1.083       .  S
C2198      C2199   1.415       .  A
C2199      C2200   1.398       .  A
C2199      S2203   1.802       .  S
C2200      H2204   1.084       .  S
S2201      H2206   1.407       .  S
S2203      H2207   1.408       .  S
C2209      C2210   1.404       .  A
C2209      C2214   1.403       .  A
C2209      H2219   1.084       .  S
C2210      C2215   1.484       .  S
C2210      C2211   1.412       .  A
C2211      C2212   1.398       .  A
C2211      S2216   1.805       .  S
C2212      C2213   1.406       .  A
C2212      H2217   1.084       .  S
C2213      C2214   1.417       .  A
C2214      S2218   1.801       .  S
C2215      C2220   1.409       .  A
C2215      C2224   1.402       .  A
S2216      H2232   1.406       .  S
S2218      H2229   1.407       .  S
C2220      C2221   1.405       .  A
C2220      S2225   1.806       .  S
C2221      C2222   1.408       .  A
C2221      H2226   1.082       .  S
C2222      C2223   1.416       .  A
C2223      C2224   1.400       .  A
C2223      S2227   1.802       .  S
C2224      H2228   1.084       .  S
S2225      H2230   1.407       .  S
S2227      H2231   1.407       .  S
C2233      C2234   1.401       .  A
C2233      C2238   1.398       .  A
C2233      H2243   1.084       .  S
C2234      C2239   1.483   1_565  S
C2234      C2235   1.413       .  A
C2235      C2236   1.404       .  A
C2235      S2240   1.804       .  S
C2236      C2237   1.407       .  A
C2236      H2241   1.084       .  S
C2237      C2238   1.417       .  A
C2238      S2242   1.803       .  S
C2239      C2244   1.408       .  A
C2239      C2248   1.400       .  A
S2240      H2256   1.405   1_565  S
S2242      H2253   1.408       .  S
C2244      C2245   1.403       .  A
C2244      S2249   1.807       .  S
C2245      C2246   1.409       .  A
C2245      H2250   1.082       .  S
C2246      C2247   1.420       .  A
C2247      C2248   1.402       .  A
C2247      S2251   1.799       .  S
C2248      H2252   1.084       .  S
S2249      H2254   1.407       .  S
S2251      H2255   1.407       .  S
C2257      C2258   1.404       .  A
C2257      C2262   1.407       .  A
C2257      H2267   1.083       .  S
C2258      C2263   1.484       .  S
C2258      C2259   1.411       .  A
C2259      C2260   1.398       .  A
C2259      S2264   1.804       .  S
C2260      C2261   1.406       .  A
C2260      H2265   1.084       .  S
C2261      C2262   1.416       .  A
C2262      S2266   1.807       .  S
C2263      C2268   1.410       .  A
C2263      C2272   1.401       .  A
S2264      H2280   1.406       .  S
S2266      H2277   1.407       .  S
C2268      C2269   1.405       .  A
C2268      S2273   1.807       .  S
C2269      C2270   1.406       .  A
C2269      H2274   1.083       .  S
C2270      C2271   1.416       .  A
C2271      C2272   1.399       .  A
C2271      S2275   1.802       .  S
C2272      H2276   1.084       .  S
S2273      H2278   1.407       .  S
S2275      H2279   1.407       .  S
C2281      C2282   1.403       .  A
C2281      C2286   1.400       .  A
C2281      H2291   1.084       .  S
C2282      C2287   1.482       .  S
C2282      C2283   1.412       .  A
C2283      C2284   1.399       .  A
C2283      S2288   1.804       .  S
C2284      C2285   1.405       .  A
C2284      H2289   1.084       .  S
C2285      C2286   1.416       .  A
C2286      S2290   1.802       .  S
C2287      C2292   1.409       .  A
C2287      C2296   1.403       .  A
S2288      H2304   1.406       .  S
S2290      H2301   1.407       .  S
C2292      C2293   1.400       .  A
C2292      S2297   1.808       .  S
C2293      C2294   1.407       .  A
C2293      H2298   1.082       .  S
C2294      C2295   1.417       .  A
C2295      C2296   1.401       .  A
C2295      S2299   1.801       .  S
C2296      H2300   1.084       .  S
S2297      H2302   1.407       .  S
S2299      H2303   1.407       .  S
C2305      C2306   1.401       .  A
C2305      C2310   1.399       .  A
C2305      H2315   1.084       .  S
C2306      C2311   1.481       .  S
C2306      C2307   1.411       .  A
C2307      C2308   1.401       .  A
C2307      S2312   1.804       .  S
C2308      C2309   1.408       .  A
C2308      H2313   1.083       .  S
C2309      C2310   1.418       .  A
C2310      S2314   1.802       .  S
C2311      C2316   1.409       .  A
C2311      C2320   1.402       .  A
S2312      H2328   1.406       .  S
S2314      H2325   1.408       .  S
C2316      C2317   1.401       .  A
C2316      S2321   1.808       .  S
C2317      C2318   1.407       .  A
C2317      H2322   1.082       .  S
C2318      C2319   1.417       .  A
C2319      C2320   1.402       .  A
C2319      S2323   1.801       .  S
C2320      H2324   1.084       .  S
S2321      H2326   1.407       .  S
S2323      H2327   1.407       .  S
C2329      C2330   1.402       .  A
C2329      C2334   1.400       .  A
C2329      H2339   1.084       .  S
C2330      C2335   1.481       .  S
C2330      C2331   1.412       .  A
C2331      C2332   1.401       .  A
C2331      S2336   1.804       .  S
C2332      C2333   1.406       .  A
C2332      H2337   1.084       .  S
C2333      C2334   1.416       .  A
C2334      S2338   1.802       .  S
C2335      C2340   1.408       .  A
C2335      C2344   1.402       .  A
S2336      H2352   1.406       .  S
S2338      H2349   1.407       .  S
C2340      C2341   1.402       .  A
C2340      S2345   1.807       .  S
C2341      C2342   1.406       .  A
C2341      H2346   1.082       .  S
C2342      C2343   1.416       .  A
C2343      C2344   1.402       .  A
C2343      S2347   1.802       .  S
C2344      H2348   1.084       .  S
S2345      H2350   1.407       .  S
S2347      H2351   1.407       .  S
C2353      C2354   1.399       .  A
C2353      C2358   1.396       .  A
C2353      H2363   1.084       .  S
C2354      C2359   1.479       .  S
C2354      C2355   1.412       .  A
C2355      C2356   1.404       .  A
C2355      S2360   1.803       .  S
C2356      C2357   1.406       .  A
C2356      H2361   1.084       .  S
C2357      C2358   1.415       .  A
C2358      S2362   1.799       .  S
C2359      C2364   1.408       .  A
C2359      C2368   1.400       .  A
S2360      H2376   1.405       .  S
S2362      H2373   1.407       .  S
C2364      C2365   1.404       .  A
C2364      S2369   1.806       .  S
C2365      C2366   1.406       .  A
C2365      H2370   1.083       .  S
C2366      C2367   1.417       .  A
C2367      C2368   1.399       .  A
C2367      S2371   1.803       .  S
C2368      H2372   1.084       .  S
S2369      H2374   1.407       .  S
S2371      H2375   1.408       .  S
C2377      C2378   1.401       .  A
C2377      C2382   1.400       .  A
C2377      H2387   1.084       .  S
C2378      C2383   1.479   1_545  S
C2378      C2379   1.412       .  A
C2379      C2380   1.399       .  A
C2379      S2384   1.804       .  S
C2380      C2381   1.404       .  A
C2380      H2385   1.084       .  S
C2381      C2382   1.416       .  A
C2382      S2386   1.803       .  S
C2383      C2388   1.409       .  A
C2383      C2392   1.399       .  A
S2384      H2400   1.406   1_545  S
S2386      H2397   1.407       .  S
C2388      C2389   1.406       .  A
C2388      S2393   1.805       .  S
C2389      C2390   1.407       .  A
C2389      H2394   1.083       .  S
C2390      C2391   1.415       .  A
C2391      C2392   1.394       .  A
C2391      S2395   1.799       .  S
C2392      H2396   1.084       .  S
S2393      H2398   1.407       .  S
S2395      H2399   1.405       .  S
C2401      C2402   1.403       .  A
C2401      C2406   1.401       .  A
C2401      H2411   1.084       .  S
C2402      C2407   1.484       .  S
C2402      C2403   1.411       .  A
C2403      C2404   1.399       .  A
C2403      S2408   1.803       .  S
C2404      C2405   1.406       .  A
C2404      H2409   1.084       .  S
C2405      C2406   1.418       .  A
C2406      S2410   1.802       .  S
C2407      C2412   1.409       .  A
C2407      C2416   1.401       .  A
S2408      H2424   1.406       .  S
S2410      H2421   1.408       .  S
C2412      C2413   1.406       .  A
C2412      S2417   1.806       .  S
C2413      C2414   1.407       .  A
C2413      H2418   1.083       .  S
C2414      C2415   1.417       .  A
C2415      C2416   1.399       .  A
C2415      S2419   1.803       .  S
C2416      H2420   1.084       .  S
S2417      H2422   1.407       .  S
S2419      H2423   1.408       .  S
C2425      C2426   1.402       .  A
C2425      C2430   1.402       .  A
C2425      H2435   1.084       .  S
C2426      C2431   1.482       .  S
C2426      C2427   1.411       .  A
C2427      C2428   1.399       .  A
C2427      S2432   1.804       .  S
C2428      C2429   1.405       .  A
C2428      H2433   1.084       .  S
C2429      C2430   1.418       .  A
C2430      S2434   1.802       .  S
C2431      C2436   1.408       .  A
C2431      C2440   1.402       .  A
S2432      H2448   1.405       .  S
S2434      H2445   1.407       .  S
C2436      C2437   1.402       .  A
C2436      S2441   1.807       .  S
C2437      C2438   1.407       .  A
C2437      H2442   1.082       .  S
C2438      C2439   1.418       .  A
C2439      C2440   1.403       .  A
C2439      S2443   1.802       .  S
C2440      H2444   1.084       .  S
S2441      H2446   1.407       .  S
S2443      H2447   1.407       .  S
C2449      C2450   1.402       .  A
C2449      C2454   1.399       .  A
C2449      H2459   1.084       .  S
C2450      C2455   1.481   1_556  S
C2450      C2451   1.412       .  A
C2451      C2452   1.400       .  A
C2451      S2456   1.803       .  S
C2452      C2453   1.404       .  A
C2452      H2457   1.084       .  S
C2453      C2454   1.414       .  A
C2454      S2458   1.804       .  S
C2455      C2460   1.408       .  A
C2455      C2464   1.401       .  A
S2456      H2472   1.406   1_556  S
S2458      H2469   1.407       .  S
C2460      C2461   1.405       .  A
C2460      S2465   1.806       .  S
C2461      C2462   1.408       .  A
C2461      H2466   1.082       .  S
C2462      C2463   1.417       .  A
C2463      C2464   1.399       .  A
C2463      S2467   1.802       .  S
C2464      H2468   1.084       .  S
S2465      H2470   1.407       .  S
S2467      H2471   1.407       .  S
C2473      C2474   1.403       .  A
C2473      C2478   1.403       .  A
C2473      H2483   1.084       .  S
C2474      C2479   1.487       .  S
C2474      C2475   1.412       .  A
C2475      C2476   1.402       .  A
C2475      S2480   1.804       .  S
C2476      C2477   1.406       .  A
C2476      H2481   1.084       .  S
C2477      C2478   1.417       .  A
C2478      S2482   1.802       .  S
C2479      C2484   1.410       .  A
C2479      C2488   1.401       .  A
S2480      H2496   1.406       .  S
S2482      H2493   1.407       .  S
C2484      C2485   1.408       .  A
C2484      S2489   1.805       .  S
C2485      C2486   1.407       .  A
C2485      H2490   1.083       .  S
C2486      C2487   1.417       .  A
C2487      C2488   1.400       .  A
C2487      S2491   1.803       .  S
C2488      H2492   1.084       .  S
S2489      H2494   1.407       .  S
S2491      H2495   1.408       .  S
C2497      C2498   1.402       .  A
C2497      C2502   1.400       .  A
C2497      H2507   1.084       .  S
C2498      C2503   1.482       .  S
C2498      C2499   1.411       .  A
C2499      C2500   1.401       .  A
C2499      S2504   1.804       .  S
C2500      C2501   1.406       .  A
C2500      H2505   1.083       .  S
C2501      C2502   1.417       .  A
C2502      S2506   1.802       .  S
C2503      C2508   1.409       .  A
C2503      C2512   1.404       .  A
S2504      H2520   1.406       .  S
S2506      H2517   1.408       .  S
C2508      C2509   1.400       .  A
C2508      S2513   1.808       .  S
C2509      C2510   1.404       .  A
C2509      H2514   1.083       .  S
C2510      C2511   1.415       .  A
C2511      C2512   1.403       .  A
C2511      S2515   1.802       .  S
C2512      H2516   1.084       .  S
S2513      H2518   1.407       .  S
S2515      H2519   1.407       .  S
C2521      C2522   1.401       .  A
C2521      C2526   1.402       .  A
C2521      H2531   1.084       .  S
C2522      C2527   1.483       .  S
C2522      C2523   1.412       .  A
C2523      C2524   1.400       .  A
C2523      S2528   1.805       .  S
C2524      C2525   1.406       .  A
C2524      H2529   1.084       .  S
C2525      C2526   1.418       .  A
C2526      S2530   1.801       .  S
C2527      C2532   1.408       .  A
C2527      C2536   1.402       .  A
S2528      H2544   1.406       .  S
S2530      H2541   1.408       .  S
C2532      C2533   1.401       .  A
C2532      S2537   1.808       .  S
C2533      C2534   1.406       .  A
C2533      H2538   1.082       .  S
C2534      C2535   1.418       .  A
C2535      C2536   1.404       .  A
C2535      S2539   1.801       .  S
C2536      H2540   1.084       .  S
S2537      H2542   1.407       .  S
S2539      H2543   1.407       .  S
C2545      C2546   1.402       .  A
C2545      C2550   1.396       .  A
C2545      H2555   1.084       .  S
C2546      C2551   1.481       .  S
C2546      C2547   1.412       .  A
C2547      C2548   1.401       .  A
C2547      S2552   1.803       .  S
C2548      C2549   1.405       .  A
C2548      H2553   1.084       .  S
C2549      C2550   1.415       .  A
C2550      S2554   1.804       .  S
C2551      C2556   1.409       .  A
C2551      C2560   1.401       .  A
S2552      H2568   1.406       .  S
S2554      H2565   1.407       .  S
C2556      C2557   1.401       .  A
C2556      S2561   1.807       .  S
C2557      C2558   1.406       .  A
C2557      H2562   1.082       .  S
C2558      C2559   1.417       .  A
C2559      C2560   1.399       .  A
C2559      S2563   1.801       .  S
C2560      H2564   1.084       .  S
S2561      H2566   1.407       .  S
S2563      H2567   1.407       .  S
C2569      C2570   1.403       .  A
C2569      C2574   1.401       .  A
C2569      H2579   1.084       .  S
C2570      C2575   1.481       .  S
C2570      C2571   1.412       .  A
C2571      C2572   1.397       .  A
C2571      S2576   1.804       .  S
C2572      C2573   1.404       .  A
C2572      H2577   1.084       .  S
C2573      C2574   1.415       .  A
C2574      S2578   1.802       .  S
C2575      C2580   1.410       .  A
C2575      C2584   1.402       .  A
S2576      H2592   1.406       .  S
S2578      H2589   1.407       .  S
C2580      C2581   1.403       .  A
C2580      S2585   1.807       .  S
C2581      C2582   1.405       .  A
C2581      H2586   1.083       .  S
C2582      C2583   1.415       .  A
C2583      C2584   1.398       .  A
C2583      S2587   1.803       .  S
C2584      H2588   1.084       .  S
S2585      H2590   1.407       .  S
S2587      H2591   1.407       .  S
C2593      C2594   1.401       .  A
C2593      C2598   1.398       .  A
C2593      H2603   1.084       .  S
C2594      C2599   1.479   1_556  S
C2594      C2595   1.411       .  A
C2595      C2596   1.402       .  A
C2595      S2600   1.804       .  S
C2596      C2597   1.406       .  A
C2596      H2601   1.084       .  S
C2597      C2598   1.415       .  A
C2598      S2602   1.803       .  S
C2599      C2604   1.406       .  A
C2599      C2608   1.401       .  A
S2600      H2616   1.405   1_556  S
S2602      H2613   1.407       .  S
C2604      C2605   1.400       .  A
C2604      S2609   1.807       .  S
C2605      C2606   1.409       .  A
C2605      H2610   1.082       .  S
C2606      C2607   1.419       .  A
C2607      C2608   1.403       .  A
C2607      S2611   1.800       .  S
C2608      H2612   1.084       .  S
S2609      H2614   1.407       .  S
S2611      H2615   1.408       .  S
C2617      C2618   1.403       .  A
C2617      C2622   1.398       .  A
C2617      H2627   1.084       .  S
C2618      C2623   1.483       .  S
C2618      C2619   1.413       .  A
C2619      C2620   1.400       .  A
C2619      S2624   1.804       .  S
C2620      C2621   1.404       .  A
C2620      H2625   1.084       .  S
C2621      C2622   1.415       .  A
C2622      S2626   1.804       .  S
C2623      C2628   1.410       .  A
C2623      C2632   1.404       .  A
S2624      H2640   1.406       .  S
S2626      H2637   1.407       .  S
C2628      C2629   1.398       .  A
C2628      S2633   1.809       .  S
C2629      C2630   1.404       .  A
C2629      H2634   1.082       .  S
C2630      C2631   1.416       .  A
C2631      C2632   1.402       .  A
C2631      S2635   1.802       .  S
C2632      H2636   1.084       .  S
S2633      H2638   1.407       .  S
S2635      H2639   1.407       .  S
C2641      C2642   1.402       .  A
C2641      C2646   1.399       .  A
C2641      H2651   1.084       .  S
C2642      C2647   1.482       .  S
C2642      C2643   1.413       .  A
C2643      C2644   1.400       .  A
C2643      S2648   1.804       .  S
C2644      C2645   1.404       .  A
C2644      H2649   1.084       .  S
C2645      C2646   1.416       .  A
C2646      S2650   1.803       .  S
C2647      C2652   1.410       .  A
C2647      C2656   1.401       .  A
S2648      H2664   1.406       .  S
S2650      H2661   1.408       .  S
C2652      C2653   1.404       .  A
C2652      S2657   1.806       .  S
C2653      C2654   1.405       .  A
C2653      H2658   1.083       .  S
C2654      C2655   1.416       .  A
C2655      C2656   1.397       .  A
C2655      S2659   1.804       .  S
C2656      H2660   1.084       .  S
S2657      H2662   1.407       .  S
S2659      H2663   1.408       .  S
C2665      C2666   1.401       .  A
C2665      C2670   1.403       .  A
C2665      H2675   1.083       .  S
C2666      C2671   1.485       .  S
C2666      C2667   1.411       .  A
C2667      C2668   1.400       .  A
C2667      S2672   1.804       .  S
C2668      C2669   1.408       .  A
C2668      H2673   1.083       .  S
C2669      C2670   1.421       .  A
C2670      S2674   1.809       .  S
C2671      C2676   1.412       .  A
C2671      C2680   1.403       .  A
S2672      H2688   1.406       .  S
S2674      H2685   1.407       .  S
C2676      C2677   1.403       .  A
C2676      S2681   1.808       .  S
C2677      C2678   1.404       .  A
C2677      H2682   1.083       .  S
C2678      C2679   1.414       .  A
C2679      C2680   1.400       .  A
C2679      S2683   1.803       .  S
C2680      H2684   1.084       .  S
S2681      H2686   1.407       .  S
S2683      H2687   1.407       .  S
C2689      C2690   1.401       .  A
C2689      C2694   1.401       .  A
C2689      H2699   1.084       .  S
C2690      C2695   1.481       .  S
C2690      C2691   1.411       .  A
C2691      C2692   1.401       .  A
C2691      S2696   1.804       .  S
C2692      C2693   1.406       .  A
C2692      H2697   1.084       .  S
C2693      C2694   1.415       .  A
C2694      S2698   1.802       .  S
C2695      C2700   1.408       .  A
C2695      C2704   1.400       .  A
S2696      H2712   1.405       .  S
S2698      H2709   1.407       .  S
C2700      C2701   1.406       .  A
C2700      S2705   1.805       .  S
C2701      C2702   1.407       .  A
C2701      H2706   1.083       .  S
C2702      C2703   1.416       .  A
C2703      C2704   1.398       .  A
C2703      S2707   1.802       .  S
C2704      H2708   1.084       .  S
S2705      H2710   1.407       .  S
S2707      H2711   1.407       .  S
C2713      C2714   1.402       .  A
C2713      C2718   1.399       .  A
C2713      H2723   1.084       .  S
C2714      C2719   1.490       .  S
C2714      C2715   1.415       .  A
C2715      C2716   1.404       .  A
C2715      S2720   1.804       .  S
C2716      C2717   1.406       .  A
C2716      H2721   1.084       .  S
C2717      C2718   1.416       .  A
C2718      S2722   1.802       .  S
C2719      C2724   1.411       .  A
C2719      C2728   1.401       .  A
S2720      H2736   1.406       .  S
S2722      H2733   1.407       .  S
C2724      C2725   1.407       .  A
C2724      S2729   1.807       .  S
C2725      C2726   1.408       .  A
C2725      H2730   1.082       .  S
C2726      C2727   1.420       .  A
C2727      C2728   1.400       .  A
C2727      S2731   1.800       .  S
C2728      H2732   1.084       .  S
S2729      H2734   1.406       .  S
S2731      H2735   1.405       .  S
C2737      C2738   1.401       .  A
C2737      C2742   1.398       .  A
C2737      H2747   1.084       .  S
C2738      C2743   1.478   1_556  S
C2738      C2739   1.411       .  A
C2739      C2740   1.400       .  A
C2739      S2744   1.804       .  S
C2740      C2741   1.405       .  A
C2740      H2745   1.084       .  S
C2741      C2742   1.415       .  A
C2742      S2746   1.803       .  S
C2743      C2748   1.409       .  A
C2743      C2752   1.400       .  A
S2744      H2760   1.406   1_556  S
S2746      H2757   1.407       .  S
C2748      C2749   1.404       .  A
C2748      S2753   1.806       .  S
C2749      C2750   1.405       .  A
C2749      H2754   1.083       .  S
C2750      C2751   1.415       .  A
C2751      C2752   1.397       .  A
C2751      S2755   1.804       .  S
C2752      H2756   1.084       .  S
S2753      H2758   1.407       .  S
S2755      H2759   1.407       .  S
C2761      C2762   1.402       .  A
C2761      C2766   1.398       .  A
C2761      H2771   1.084       .  S
C2762      C2767   1.481       .  S
C2762      C2763   1.412       .  A
C2763      C2764   1.402       .  A
C2763      S2768   1.804       .  S
C2764      C2765   1.404       .  A
C2764      H2769   1.084       .  S
C2765      C2766   1.415       .  A
C2766      S2770   1.804       .  S
C2767      C2772   1.409       .  A
C2767      C2776   1.401       .  A
S2768      H2784   1.406       .  S
S2770      H2781   1.407       .  S
C2772      C2773   1.402       .  A
C2772      S2777   1.806       .  S
C2773      C2774   1.406       .  A
C2773      H2778   1.083       .  S
C2774      C2775   1.417       .  A
C2775      C2776   1.399       .  A
C2775      S2779   1.803       .  S
C2776      H2780   1.084       .  S
S2777      H2782   1.407       .  S
S2779      H2783   1.408       .  S
C2785      C2786   1.403       .  A
C2785      C2790   1.400       .  A
C2785      H2795   1.084       .  S
C2786      C2791   1.487       .  S
C2786      C2787   1.413       .  A
C2787      C2788   1.401       .  A
C2787      S2792   1.803       .  S
C2788      C2789   1.404       .  A
C2788      H2793   1.084       .  S
C2789      C2790   1.416       .  A
C2790      S2794   1.803       .  S
C2791      C2796   1.411       .  A
C2791      C2800   1.402       .  A
S2792      H2808   1.406       .  S
S2794      H2805   1.407       .  S
C2796      C2797   1.407       .  A
C2796      S2801   1.806       .  S
C2797      C2798   1.407       .  A
C2797      H2802   1.082       .  S
C2798      C2799   1.417       .  A
C2799      C2800   1.398       .  A
C2799      S2803   1.803       .  S
C2800      H2804   1.084       .  S
S2801      H2806   1.406       .  S
S2803      H2807   1.407       .  S
C2809      C2810   1.402       .  A
C2809      C2814   1.400       .  A
C2809      H2819   1.084       .  S
C2810      C2815   1.477       .  S
C2810      C2811   1.412       .  A
C2811      C2812   1.395       .  A
C2811      S2816   1.805       .  S
C2812      C2813   1.403       .  A
C2812      H2817   1.084       .  S
C2813      C2814   1.414       .  A
C2814      S2818   1.802       .  S
C2815      C2820   1.408       .  A
C2815      C2824   1.402       .  A
S2816      H2832   1.406       .  S
S2818      H2829   1.407       .  S
C2820      C2821   1.398       .  A
C2820      S2825   1.808       .  S
C2821      C2822   1.405       .  A
C2821      H2826   1.083       .  S
C2822      C2823   1.415       .  A
C2823      C2824   1.401       .  A
C2823      S2827   1.801       .  S
C2824      H2828   1.084       .  S
S2825      H2830   1.407       .  S
S2827      H2831   1.407       .  S
C2833      C2834   1.401       .  A
C2833      C2838   1.400       .  A
C2833      H2843   1.084       .  S
C2834      C2839   1.481       .  S
C2834      C2835   1.412       .  A
C2835      C2836   1.401       .  A
C2835      S2840   1.804       .  S
C2836      C2837   1.406       .  A
C2836      H2841   1.084       .  S
C2837      C2838   1.417       .  A
C2838      S2842   1.802       .  S
C2839      C2844   1.409       .  A
C2839      C2848   1.401       .  A
S2840      H2856   1.406       .  S
S2842      H2853   1.408       .  S
C2844      C2845   1.405       .  A
C2844      S2849   1.806       .  S
C2845      C2846   1.405       .  A
C2845      H2850   1.083       .  S
C2846      C2847   1.416       .  A
C2847      C2848   1.399       .  A
C2847      S2851   1.803       .  S
C2848      H2852   1.084       .  S
S2849      H2854   1.406       .  S
S2851      H2855   1.407       .  S
C2857      C2858   1.403       .  A
C2857      C2862   1.398       .  A
C2857      H2867   1.084       .  S
C2858      C2863   1.484       .  S
C2858      C2859   1.413       .  A
C2859      C2860   1.402       .  A
C2859      S2864   1.804       .  S
C2860      C2861   1.405       .  A
C2860      H2865   1.084       .  S
C2861      C2862   1.415       .  A
C2862      S2866   1.804       .  S
C2863      C2868   1.410       .  A
C2863      C2872   1.402       .  A
S2864      H2880   1.406       .  S
S2866      H2877   1.408       .  S
C2868      C2869   1.402       .  A
C2868      S2873   1.807       .  S
C2869      C2870   1.406       .  A
C2869      H2874   1.083       .  S
C2870      C2871   1.417       .  A
C2871      C2872   1.400       .  A
C2871      S2875   1.802       .  S
C2872      H2876   1.084       .  S
S2873      H2878   1.407       .  S
S2875      H2879   1.407       .  S
C2881      C2882   1.401       .  A
C2881      C2886   1.397       .  A
C2881      H2891   1.084       .  S
C2882      C2887   1.476       .  S
C2882      C2883   1.412       .  A
C2883      C2884   1.400       .  A
C2883      S2888   1.804       .  S
C2884      C2885   1.403       .  A
C2884      H2889   1.084       .  S
C2885      C2886   1.415       .  A
C2886      S2890   1.804       .  S
C2887      C2892   1.407       .  A
C2887      C2896   1.399       .  A
S2888      H2904   1.403       .  S
S2890      H2901   1.407       .  S
C2892      C2893   1.405       .  A
C2892      S2897   1.806       .  S
C2893      C2894   1.407       .  A
C2893      H2898   1.083       .  S
C2894      C2895   1.416       .  A
C2895      C2896   1.401       .  A
C2895      S2899   1.808       .  S
C2896      H2900   1.083       .  S
S2897      H2902   1.407       .  S
S2899      H2903   1.407       .  S
C2905      C2906   1.402       .  A
C2905      C2910   1.401       .  A
C2905      H2915   1.084       .  S
C2906      C2911   1.476   1_556  S
C2906      C2907   1.410       .  A
C2907      C2908   1.396       .  A
C2907      S2912   1.806       .  S
C2908      C2909   1.405       .  A
C2908      H2913   1.084       .  S
C2909      C2910   1.415       .  A
C2910      S2914   1.801       .  S
C2911      C2916   1.408       .  A
C2911      C2920   1.400       .  A
S2912      H2928   1.404   1_556  S
S2914      H2925   1.407       .  S
C2916      C2917   1.401       .  A
C2916      S2921   1.807       .  S
C2917      C2918   1.406       .  A
C2917      H2922   1.083       .  S
C2918      C2919   1.416       .  A
C2919      C2920   1.400       .  A
C2919      S2923   1.802       .  S
C2920      H2924   1.084       .  S
S2921      H2926   1.407       .  S
S2923      H2927   1.408       .  S
