geometry optimzed in LAMMPS
_audit_creation_date              2020-12-01 
_audit_creation_method            'lammps2cif' 
_symmetry_space_group_name_H-M    'P1' 
_symmetry_Int_Tables_number       1 
_symmetry_cell_setting            triclinic 
loop_ 
_symmetry_equiv_pos_as_xyz 
  x,y,z 
_cell_length_a                    28.33651215 
_cell_length_b                    28.37428040757107 
_cell_length_c                    28.39105477996093 
_cell_angle_alpha                 90.06338283410464 
_cell_angle_beta                  89.94890773932157 
_cell_angle_gamma                 90.0205078865 
loop_ 
_atom_site_label 
_atom_site_type_symbol 
_atom_site_fract_x 
_atom_site_fract_y 
_atom_site_fract_z 
_atom_site_charge 
C1          C  0.99891816  0.14030649  0.38108696     0.42300
N2          N  0.97798045  0.09991001  0.44151212     0.01200
C3          C  0.11290999  0.95614431  0.58403750    -0.06600
H4          H  0.11639635  0.91140378  0.40138790     0.06700
C5          C  0.94259645  0.88085161  0.41106808    -0.07000
Co6        Co  0.06036806  0.05730454  0.49167687     0.74200
N7          N  0.08788998  0.96820171  0.44307733    -0.26200
Co8        Co  0.04902877  0.93577714  0.49595077     0.74100
C9          C  0.98335751  0.85966032  0.38760424     0.42400
N10         N  0.89384807  0.98702082  0.44586227     0.00900
N11         N  0.00727791  0.90192032  0.44561988     0.01000
N12         N  0.12052750  0.03526464  0.57845627    -0.47000
H13         H  0.07762486  0.12301103  0.39349868     0.06700
N14         N  0.09191320  0.01444166  0.44078857     0.01200
N15         N  0.00892223  0.90446707  0.54853839     0.01000
C16         C  0.98760994  0.86358885  0.60831401     0.42600
N17         N  0.89759843  0.03336957  0.44585755    -0.25600
C18         C  0.04652137  0.12492279  0.57705370    -0.06500
N19         N  0.96137303  0.12661907  0.40703259    -0.46700
N20         N  0.02528341  0.87773773  0.58295137    -0.47000
C21         C  0.00615827  0.14612626  0.60112132     0.42400
N22         N  0.09394067  0.01817248  0.54409530     0.01200
N23         N  0.90054466  0.03516024  0.54866893    -0.25600
N24         N  0.02431964  0.09533328  0.44003482    -0.26100
N25         N  0.89568628  0.98889032  0.54895913     0.00900
H26         H  0.87314976  0.09022253  0.59360066     0.06800
H27         H  0.90886880  0.87979084  0.59496232     0.06800
N28         N  0.08906427  0.97195980  0.54632765    -0.26200
N29         N  0.96093012  0.90637360  0.44634611    -0.25800
N30         N  0.98120443  0.10258713  0.54456816     0.01200
C31         C  0.13323596  0.98875550  0.38279225     0.42600
C32         C  0.87138740  0.05081097  0.41072805    -0.07100
N33         N  0.96255898  0.90844236  0.54923958    -0.25800
H34         H  0.90540404  0.87745752  0.40330867     0.06800
N35         N  0.11898360  0.02826725  0.40535036    -0.47000
H36         H  0.86735670  0.08770850  0.40224389     0.06800
C37         C  0.85566613  0.01226472  0.60871369     0.42500
C38         C  0.04081578  0.11966423  0.40306433    -0.06500
Co39       Co  0.93862530  0.06863482  0.49529017     0.73800
N40         N  0.86610381  0.97118100  0.41179594    -0.46700
C41         C  0.13362135  0.99832890  0.60539083     0.42700
N42         N  0.96690756  0.13082302  0.57888012    -0.46700
Co43       Co  0.92733073  0.94697474  0.49755552     0.73900
C44         C  0.94574133  0.88375524  0.58591278    -0.07100
C45         C  0.11277262  0.94881952  0.40791006    -0.06600
N46         N  0.02753844  0.09859330  0.54271888    -0.26100
N47         N  0.02217654  0.87418808  0.41110846    -0.46900
H48         H  0.11573933  0.91967930  0.59477900     0.06700
C49         C  0.87657067  0.05315808  0.58532311    -0.07000
Cl50       Cl  0.99383156  0.00218023  0.49509738    -0.50000
C51         C  0.85084926  0.00948206  0.38808125     0.42500
H52         H  0.08385747  0.12883910  0.58379798     0.06700
N53         N  0.86881655  0.97379796  0.58398436    -0.46700
C54         C  0.13837506  0.39440748  0.00397923     0.42300
N55         N  0.09520286  0.45152561  0.98010276     0.01200
C56         C  0.94562695  0.58855036  0.11569866    -0.06600
H57         H  0.90923237  0.40715967  0.11790974     0.06700
C58         C  0.87532104  0.41435250  0.94618735    -0.07000
Co59       Co  0.05126760  0.50350140  0.06050089     0.74200
N60         N  0.96407841  0.45140784  0.08929576    -0.26200
Co61       Co  0.92960908  0.50260247  0.04983515     0.74100
C62         C  0.85485543  0.39169500  0.98777890     0.42400
N63         N  0.98125811  0.44971929  0.89576330     0.00900
N64         N  0.89676335  0.45085086  0.00950321     0.01000
N65         N  0.02526092  0.58857013  0.12197713    -0.47000
H66         H  0.12091771  0.41025174  0.08182996     0.06700
N67         N  0.01043960  0.45153213  0.09361004     0.01200
N68         N  0.89706585  0.55406342  0.00889903     0.01000
C69         C  0.85666080  0.61371385  0.98612313     0.42600
N70         N  0.02760652  0.45022153  0.90012417    -0.25600
C71         C  0.11595272  0.59126815  0.04184834    -0.06500
N72         N  0.12351029  0.41753062  0.96517775    -0.46700
N73         N  0.87038106  0.58910525  0.02441653    -0.47000
C74         C  0.13698019  0.61303601  0.00008005     0.42400
N75         N  0.01025999  0.55479211  0.09338689     0.01200
N76         N  0.02741036  0.55309368  0.89877600    -0.25600
N77         N  0.09096845  0.45231698  0.02636699    -0.26100
N78         N  0.98102610  0.55322082  0.89488781     0.00900
H79         H  0.08198852  0.59771689  0.87015073     0.06800
H80         H  0.87349014  0.59857359  0.90800993     0.06800
N81         N  0.96391406  0.55398716  0.08931146    -0.26200
N82         N  0.90068025  0.45049517  0.96320605    -0.25800
N83         N  0.09465606  0.55415297  0.97882586     0.01200
C84         C  0.98741508  0.39254427  0.13521486     0.42600
C85         C  0.04573794  0.41424381  0.87554804    -0.07100
N86         N  0.90127807  0.55375523  0.96260875    -0.25800
H87         H  0.87141776  0.40559281  0.90928599     0.06800
N88         N  0.02585785  0.41698634  0.12092680    -0.47000
H89         H  0.08291886  0.40640338  0.87222345     0.06800
C90         C  0.00365413  0.61241115  0.85360896     0.42500
C91         C  0.11690589  0.41746855  0.04465292    -0.06500
Co92       Co  0.06202308  0.50218583  0.93875912     0.73800
N93         N  0.96616864  0.41470984  0.86871323    -0.46700
C94         C  0.98637735  0.61153948  0.13728078     0.42700
N95         N  0.12241182  0.58788145  0.96248121    -0.46700
Co96       Co  0.94025638  0.50174505  0.92816532     0.73900
C97         C  0.87700938  0.59024197  0.94499859    -0.07100
C98         C  0.94632372  0.41548358  0.11434202    -0.06600
N99         N  0.09047187  0.55504209  0.02514205    -0.26100
N100        N  0.86958383  0.41648878  0.02561107    -0.46900
H101        H  0.90838203  0.59558625  0.11996308     0.06700
C102        C  0.04497458  0.58907731  0.87366417    -0.07000
Cl103      Cl  0.99581118  0.50250881  0.99431801    -0.50000
C104        C  0.00493300  0.39059002  0.85481842     0.42500
H105        H  0.12026048  0.60019159  0.07867145     0.06700
N106        N  0.96533390  0.58810296  0.86816409    -0.46700
C107        C  0.60408474  0.99797437  0.13762545     0.42300
N108        N  0.54614007  0.01912297  0.09408170     0.01200
C109        C  0.41051059  0.88027476  0.94644990    -0.06600
H110        H  0.58974479  0.87785291  0.90737123     0.06700
C111        C  0.58269936  0.05412431  0.87765437    -0.07000
Co112      Co  0.49707570  0.93675691  0.05035377     0.74200
N113        N  0.54799103  0.90898237  0.96272424    -0.26200
Co114      Co  0.49552382  0.94758483  0.92884679     0.74100
C115        C  0.60681749  0.01318966  0.85765244     0.42400
N116        N  0.54288821  0.10384032  0.98067691     0.00900
N117        N  0.54625477  0.98977868  0.89645234     0.01000
N118        N  0.41224587  0.87468258  0.02600030    -0.47000
H119        H  0.59249186  0.91948303  0.11987625     0.06700
N120        N  0.54876092  0.90491733  0.00899423     0.01200
N121        N  0.44262656  0.98705759  0.89611340     0.01000
C122        C  0.38430311  0.00901144  0.85316572     0.42600
N123        N  0.54308637  0.09977746  0.02695442    -0.25600
C124        C  0.41125506  0.95009739  0.11704351    -0.06500
N125        N  0.57886772  0.03555668  0.12299835    -0.46700
N126        N  0.40849597  0.97092776  0.86845367    -0.47000
C127        C  0.38723323  0.99013677  0.13870487     0.42400
N128        N  0.44583170  0.90292220  0.01006375     0.01200
N129        N  0.44007765  0.09530239  0.02718785    -0.25600
N130        N  0.54783865  0.97285201  0.08940055    -0.26100
N131        N  0.43974512  0.09963162  0.98091222     0.00900
H132        H  0.39451628  0.12148182  0.08201558     0.06800
H133        H  0.39818917  0.08739105  0.86950584     0.06800
N134        N  0.44548740  0.90687416  0.96373937    -0.26200
N135        N  0.54563159  0.03607325  0.90100281    -0.25800
N136        N  0.44337824  0.01561865  0.09489762     0.01200
C137        C  0.60570611  0.86111861  0.98525530     0.42600
C138        C  0.57810440  0.12646937  0.04434221    -0.07100
N139        N  0.44229974  0.03340495  0.89985331    -0.25800
H140        H  0.59123563  0.09115826  0.87467679     0.06800
N141        N  0.58245682  0.87629468  0.02394163    -0.47000
H142        H  0.58648495  0.13051874  0.08128532     0.06800
C143        C  0.37876684  0.13795419  0.00401088     0.42500
C144        C  0.58359343  0.95623865  0.11543352    -0.06500
Co145      Co  0.49315810  0.05822925  0.06159681     0.73800
N146        N  0.57633357  0.13236908  0.96492851    -0.46700
C147        C  0.38847565  0.85917108  0.98785531     0.42700
N148        N  0.40917397  0.02959063  0.12350113    -0.46700
Co149      Co  0.49263049  0.06915269  0.93987379     0.73900
C150        C  0.40683035  0.05048647  0.87374370    -0.07100
C151        C  0.58284385  0.88270094  0.94449237    -0.06600
N152        N  0.44533837  0.96938748  0.09064739    -0.26100
N153        N  0.58201700  0.97469800  0.87055653    -0.46900
H154        H  0.40204301  0.87601372  0.90951273     0.06700
C155        C  0.40286683  0.11834425  0.04501181    -0.07000
Cl156      Cl  0.49463578  0.00292627  0.99518489    -0.50000
C157        C  0.60024433  0.14793972  0.00300148     0.42500
H158        H  0.40493341  0.91276914  0.12100655     0.06700
N159        N  0.40384125  0.12517349  0.96559311    -0.46700
C160        C  0.70049443  0.74180793  0.06920809    -0.17900
C161        C  0.73622960  0.70780491  0.06954661    -0.20100
C162        C  0.76229042  0.69826079  0.02859251     0.20500
C163        C  0.75238083  0.72335498  0.98685326    -0.03000
C164        C  0.71628453  0.75762464  0.98646462    -0.06100
C165        C  0.69026830  0.76687571  0.02784936     0.20800
C166        C  0.70612276  0.78244623  0.94462853     0.19000
C167        C  0.73234732  0.77306907  0.90371984    -0.17600
C168        C  0.76816949  0.73915994  0.90411691    -0.19800
C169        C  0.77825363  0.71395121  0.94540457     0.20500
C170        C  0.81323108  0.67897129  0.94570437    -0.32800
C171        C  0.82250759  0.65307950  0.98688268     0.01200
C172        C  0.79750880  0.66354435  0.02839163    -0.24200
C173        C  0.65443121  0.80097122  0.02718226    -0.28700
C174        C  0.64398208  0.82570658  0.98556824     0.06800
C175        C  0.66994255  0.81618500  0.94442231    -0.27400
H176        H  0.68081045  0.74842918  0.10120628     0.11600
H177        H  0.74332921  0.68876766  0.10189396     0.12700
H178        H  0.72506764  0.79188104  0.87134657     0.11800
H179        H  0.78776071  0.73242082  0.87203133     0.11000
H180        H  0.83269091  0.67161884  0.91376590     0.16400
H181        H  0.80460073  0.64381139  0.06032120     0.12300
H182        H  0.63444917  0.80797304  0.05896559     0.15200
H183        H  0.66231714  0.83521730  0.91225099     0.14900
C184        C  0.71835309  0.24944288  0.08220215    -0.17900
C185        C  0.75427288  0.28323170  0.07997011    -0.20100
C186        C  0.77041806  0.29989204  0.03628924     0.20500
C187        C  0.75069459  0.28172961  0.99440107    -0.03000
C188        C  0.71437607  0.24768180  0.99665462    -0.06100
C189        C  0.69791760  0.23170553  0.04078873     0.20800
C190        C  0.69411517  0.23015616  0.95476849     0.19000
C191        C  0.71078211  0.24621151  0.91105794    -0.17600
C192        C  0.74677926  0.27987685  0.90884831    -0.19800
C193        C  0.76670691  0.29812587  0.95025190     0.20500
C194        C  0.80166566  0.33309264  0.94829776    -0.32800
C195        C  0.82058179  0.35232164  0.98985235     0.01200
C196        C  0.80524714  0.33498368  0.03371350    -0.24200
C197        C  0.66100162  0.19872878  0.04272047    -0.28700
C198        C  0.64015450  0.18162545  0.00112686     0.06800
C199        C  0.65720400  0.19728976  0.95728425    -0.27400
H200        H  0.70623474  0.23747199  0.11638043     0.11600
H201        H  0.76914501  0.29671090  0.11249436     0.12700
H202        H  0.69569908  0.23300589  0.87859159     0.11800
H203        H  0.75872949  0.29203110  0.87463646     0.11000
H204        H  0.81328599  0.34602501  0.91427050     0.16400
H205        H  0.81989792  0.34938685  0.06600368     0.12300
H206        H  0.64823978  0.18687239  0.07670843     0.15200
H207        H  0.64151426  0.18415587  0.92502748     0.14900
C208        C  0.29506049  0.73431631  0.91108919    -0.17900
C209        C  0.25959431  0.70011385  0.91273311    -0.20100
C210        C  0.23293775  0.69358702  0.95390179     0.20500
C211        C  0.24208786  0.72176608  0.99385277    -0.03000
C212        C  0.27801883  0.75615922  0.99225181    -0.06100
C213        C  0.30449291  0.76250912  0.95058963     0.20800
C214        C  0.28767925  0.78390241  0.03241324     0.19000
C215        C  0.26092233  0.77746459  0.07352819    -0.17600
C216        C  0.22512171  0.74353844  0.07501860    -0.19800
C217        C  0.21565660  0.71528776  0.03553333     0.20500
C218        C  0.18074745  0.68023785  0.03718202    -0.32800
C219        C  0.17197240  0.65158523  0.99774417     0.01200
C220        C  0.19775770  0.65894480  0.95604098    -0.24200
C221        C  0.34008569  0.79674047  0.94924330    -0.28700
C222        C  0.35012586  0.82415633  0.98920422     0.06800
C223        C  0.32399438  0.81745019  0.03074043    -0.27400
H224        H  0.31524776  0.73863317  0.87891417     0.11600
H225        H  0.25309761  0.67861504  0.88182503     0.12700
H226        H  0.26779348  0.79859344  0.10459717     0.11800
H227        H  0.20506092  0.73910416  0.10725789     0.11000
H228        H  0.16066090  0.67511457  0.06929334     0.16400
H229        H  0.19114659  0.63697543  0.92543493     0.12300
H230        H  0.36054967  0.80136729  0.91729914     0.15200
H231        H  0.33168369  0.83865463  0.06162774     0.14900
C232        C  0.22815970  0.27157233  0.08819350    -0.17900
C233        C  0.26074285  0.23458583  0.08801763    -0.20100
C234        C  0.28228392  0.22034360  0.04580947     0.20500
C235        C  0.27037615  0.24307446  0.00326006    -0.03000
C236        C  0.23739048  0.28024577  0.00341743    -0.06100
C237        C  0.21641014  0.29468725  0.04614130     0.20800
C238        C  0.22571971  0.30318355  0.96089688     0.19000
C239        C  0.24697947  0.28869130  0.91867115    -0.17600
C240        C  0.27983347  0.25195527  0.91851600    -0.19800
C241        C  0.29189749  0.22912633  0.96064506     0.20500
C242        C  0.32596038  0.19336891  0.96101072    -0.32800
C243        C  0.33918059  0.17172973  0.00350327     0.01200
C244        C  0.31637985  0.18458149  0.04559952    -0.24200
C245        C  0.18408798  0.33202120  0.04609920    -0.28700
C246        C  0.17225959  0.35496133  0.00385241     0.06800
C247        C  0.19313064  0.34028558  0.96140260    -0.27400
H248        H  0.21227346  0.28221249  0.12127860     0.11600
H249        H  0.26947319  0.21746830  0.12094597     0.12700
H250        H  0.23838497  0.30596649  0.88570834     0.11800
H251        H  0.29606822  0.24165596  0.88556877     0.11000
H252        H  0.34315695  0.18339696  0.92840519     0.16400
H253        H  0.32587599  0.16770305  0.07842669     0.12300
H254        H  0.16815280  0.34294504  0.07897500     0.15200
H255        H  0.18420336  0.35791344  0.92871079     0.14900
C256        C  0.69515511  0.93215616  0.73258606    -0.17900
C257        C  0.72960352  0.93216240  0.69736378    -0.20100
C258        C  0.75937711  0.97121001  0.69143360     0.20500
C259        C  0.75470288  0.01057718  0.72152409    -0.03000
C260        C  0.71971851  0.01068872  0.75696149    -0.06100
C261        C  0.68977315  0.97132074  0.76229462     0.20800
C262        C  0.71411056  0.05045947  0.78639466     0.19000
C263        C  0.74456313  0.08914759  0.78100099    -0.17600
C264        C  0.77944471  0.08892836  0.74599652    -0.19800
C265        C  0.78438375  0.05011432  0.71565838     0.20500
C266        C  0.81785363  0.05037333  0.67909075    -0.32800
C267        C  0.82208925  0.01151503  0.64857238     0.01200
C268        C  0.79321786  0.97183801  0.65545570    -0.24200
C269        C  0.65420929  0.97211559  0.79649819    -0.28700
C270        C  0.64715032  0.01219614  0.82469831     0.06800
C271        C  0.67758268  0.05109896  0.81996431    -0.27400
H272        H  0.67233515  0.90175659  0.73622175     0.11600
H273        H  0.73270943  0.90170113  0.67447062     0.12700
H274        H  0.74102921  0.11982040  0.80348979     0.11800
H275        H  0.80215963  0.11944838  0.74221917     0.11000
H276        H  0.84041684  0.08086454  0.67428790     0.16400
H277        H  0.79629170  0.94177365  0.63202158     0.12300
H278        H  0.63093757  0.94199133  0.80005608     0.15200
H279        H  0.67267038  0.08187519  0.84207773     0.14900
C280        C  0.25963560  0.08316347  0.69015606    -0.17900
C281        C  0.29531432  0.08425783  0.72414145    -0.20100
C282        C  0.30180905  0.04610994  0.75486346     0.20500
C283        C  0.27185132  0.00649040  0.75150499    -0.03000
C284        C  0.23570967  0.00541148  0.71719986    -0.06100
C285        C  0.22983244  0.04383878  0.68623208     0.20800
C286        C  0.20609240  0.96556474  0.71330876     0.19000
C287        C  0.21214719  0.92774631  0.74458883    -0.17600
C288        C  0.24804650  0.92873918  0.77849040    -0.19800
C289        C  0.27845734  0.96769367  0.78190984     0.20500
C290        C  0.31550976  0.96848210  0.81488704    -0.32800
C291        C  0.34529899  0.00799913  0.81849975     0.01200
C292        C  0.33795873  0.04674811  0.78858569    -0.24200
C293        C  0.19510744  0.04181341  0.65108661    -0.28700
C294        C  0.16680190  0.00144675  0.64562832     0.06800
C295        C  0.17185762  0.96381909  0.67748499    -0.27400
H296        H  0.25565520  0.11289345  0.66658684     0.11600
H297        H  0.31811241  0.11490438  0.72617910     0.12700
H298        H  0.18950616  0.89699199  0.74236920     0.11800
H299        H  0.25231803  0.89882013  0.80177902     0.11000
H300        H  0.32091585  0.93859882  0.83806688     0.16400
H301        H  0.36108506  0.07714330  0.79084941     0.12300
H302        H  0.19127459  0.07107964  0.62686232     0.15200
H303        H  0.14963349  0.93286849  0.67401016     0.14900
C304        C  0.28131552  0.90300337  0.24642178    -0.17900
C305        C  0.24524548  0.90271389  0.28011960    -0.20100
C306        C  0.22358062  0.94493186  0.29415890     0.20500
C307        C  0.23814487  0.98788496  0.27372286    -0.03000
C308        C  0.27456922  0.98823439  0.23980642    -0.06100
C309        C  0.29630431  0.94561638  0.22619887     0.20800
C310        C  0.28951286  0.03130595  0.21987751     0.19000
C311        C  0.26758379  0.07343936  0.23356919    -0.17600
C312        C  0.23144719  0.07314058  0.26710341    -0.19800
C313        C  0.21675423  0.03059681  0.28759711     0.20500
C314        C  0.18163588  0.03025908  0.32236325    -0.32800
C315        C  0.16769299  0.98781375  0.34368391     0.01200
C316        C  0.18826573  0.94516667  0.32883854    -0.24200
C317        C  0.33284734  0.94634766  0.19283447    -0.28700
C318        C  0.34813027  0.98922407  0.17313603     0.06800
C319        C  0.32624791  0.03148419  0.18682149    -0.27400
H320        H  0.29762377  0.87004180  0.23636826     0.11600
H321        H  0.23450383  0.86936747  0.29547552     0.12700
H322        H  0.27857838  0.10685242  0.21847121     0.11800
H323        H  0.21530521  0.10612213  0.27732060     0.11000
H324        H  0.16569439  0.06318126  0.33337327     0.16400
H325        H  0.17774198  0.91218642  0.34500170     0.12300
H326        H  0.34957660  0.91361098  0.18273830     0.15200
H327        H  0.33780796  0.06466145  0.17167346     0.14900
C328        C  0.72009975  0.08370371  0.30113073    -0.17900
C329        C  0.68518123  0.08183694  0.26641864    -0.20100
C330        C  0.68086589  0.04201716  0.23738275     0.20500
C331        C  0.71178764  0.00353984  0.24353851    -0.03000
C332        C  0.74696584  0.00538613  0.27862648    -0.06100
C333        C  0.75117260  0.04574571  0.30742982     0.20800
C334        C  0.77769364  0.96676680  0.28507100     0.19000
C335        C  0.77338758  0.92698981  0.25597097    -0.17600
C336        C  0.73856715  0.92520014  0.22109789    -0.19800
C337        C  0.70748424  0.96317452  0.21475575     0.20500
C338        C  0.67217168  0.96148636  0.18018059    -0.32800
C339        C  0.64146499  0.99982654  0.17374078     0.01200
C340        C  0.64610918  0.04001307  0.20235212    -0.24200
C341        C  0.78603666  0.04724288  0.34236547    -0.28700
C342        C  0.81605056  0.00853168  0.34957472     0.06800
C343        C  0.81183663  0.96846192  0.32079460    -0.27400
H344        H  0.72272882  0.11481864  0.32312995     0.11600
H345        H  0.66157712  0.11154721  0.26226574     0.12700
H346        H  0.79682764  0.89714115  0.26031810     0.11800
H347        H  0.73584340  0.89404541  0.19919816     0.11000
H348        H  0.66891993  0.93052444  0.15806374     0.16400
H349        H  0.62233185  0.06952699  0.19772746     0.12300
H350        H  0.78892723  0.07804844  0.36477234     0.15200
H351        H  0.83521077  0.93870272  0.32617848     0.14900
C352        C  0.09144991  0.28191572  0.74967928    -0.17900
C353        C  0.09173600  0.24813490  0.71377638    -0.20100
C354        C  0.04917697  0.23036694  0.69578736     0.20500
C355        C  0.00589623  0.24653135  0.71442379    -0.03000
C356        C  0.00560581  0.28072907  0.75057172    -0.06100
C357        C  0.04860226  0.29859340  0.76809813     0.20800
C358        C  0.96232187  0.29751423  0.76865976     0.19000
C359        C  0.91977714  0.27941178  0.75095664    -0.17600
C360        C  0.92006359  0.24540511  0.71523289    -0.19800
C361        C  0.96289204  0.22899318  0.69655117     0.20500
C362        C  0.96342884  0.19576979  0.65995875    -0.32800
C363        C  0.00637206  0.17992472  0.64080543     0.01200
C364        C  0.04913400  0.19712661  0.65916998    -0.24200
C365        C  0.04805426  0.33345529  0.80310376    -0.28700
C366        C  0.00509065  0.35128788  0.82047353     0.06800
C367        C  0.96234805  0.33266948  0.80351026    -0.27400
H368        H  0.12477142  0.29532911  0.76275192     0.11600
H369        H  0.12526729  0.23611333  0.69987005     0.12700
H370        H  0.88624426  0.29183624  0.76447784     0.11800
H371        H  0.88674744  0.23222565  0.70193385     0.11000
H372        H  0.93032483  0.18255119  0.64611301     0.16400
H373        H  0.08243457  0.18517064  0.64474159     0.12300
H374        H  0.08123091  0.34731894  0.81591404     0.15200
H375        H  0.92910079  0.34603038  0.81689695     0.14900
C376        C  0.07986544  0.75292769  0.70495847    -0.17900
C377        C  0.08228060  0.71779926  0.73937888    -0.20100
C378        C  0.04165987  0.70422130  0.76421537     0.20500
C379        C  0.99831562  0.72687875  0.75490374    -0.03000
C380        C  0.99588702  0.76240846  0.72022331    -0.06100
C381        C  0.03677961  0.77508420  0.69486809     0.20800
C382        C  0.95239803  0.78454473  0.71029967     0.19000
C383        C  0.91202113  0.77176508  0.73595510    -0.17600
C384        C  0.91439458  0.73645111  0.77026238    -0.19800
C385        C  0.95721540  0.71338468  0.77953481     0.20500
C386        C  0.95946153  0.67646514  0.81232982    -0.32800
C387        C  0.00233041  0.65307148  0.82105046     0.01200
C388        C  0.04344220  0.66773181  0.79747147    -0.24200
C389        C  0.03376331  0.80902467  0.65921130    -0.28700
C390        C  0.99031097  0.83021817  0.64813865     0.06800
C391        C  0.94988316  0.81836269  0.67430813    -0.27400
H392        H  0.11156831  0.76237047  0.68586557     0.11600
H393        H  0.11584621  0.70083064  0.74615364     0.12700
H394        H  0.87843541  0.78860090  0.72903319     0.11800
H395        H  0.88260406  0.72676347  0.78910891     0.11000
H396        H  0.92774788  0.66562061  0.83073017     0.16400
H397        H  0.07660694  0.64990539  0.80389561     0.12300
H398        H  0.06513411  0.81814926  0.63938255     0.15200
H399        H  0.91638397  0.83488129  0.66636240     0.14900
C400        C  0.89955900  0.71640384  0.24565239    -0.17900
C401        C  0.89900116  0.75152643  0.28020213    -0.20100
C402        C  0.94132527  0.77175382  0.29600197     0.20500
C403        C  0.98464446  0.75668999  0.27657344    -0.03000
C404        C  0.98520166  0.72125324  0.24164145    -0.06100
C405        C  0.94243326  0.70101451  0.22625544     0.20800
C406        C  0.02851053  0.70579908  0.22246488     0.19000
C407        C  0.07081943  0.72621595  0.23814015    -0.17600
C408        C  0.07026718  0.76134243  0.27280594    -0.19800
C409        C  0.02741367  0.77661840  0.29242083     0.20500
C410        C  0.02660249  0.81091366  0.32808952    -0.32800
C411        C  0.98360261  0.82551475  0.34816006     0.01200
C412        C  0.94107519  0.80621803  0.33142945    -0.24200
C413        C  0.94319370  0.66553608  0.19194204    -0.28700
C414        C  0.98614272  0.64972692  0.17277866     0.06800
C415        C  0.02871299  0.67005662  0.18818402    -0.27400
H416        H  0.86643097  0.70114387  0.23422110     0.11600
H417        H  0.86546217  0.76265347  0.29479794     0.12700
H418        H  0.10436529  0.71484842  0.22376725     0.11800
H419        H  0.10342203  0.77633247  0.28452344     0.11000
H420        H  0.05951400  0.82584253  0.34060852     0.16400
H421        H  0.90775819  0.81715253  0.34655787     0.12300
H422        H  0.91019920  0.65003635  0.18064269     0.15200
H423        H  0.06195372  0.65805774  0.17355412     0.14900
C424        C  0.07705914  0.28695262  0.23976315    -0.17900
C425        C  0.07873508  0.25162510  0.27396117    -0.20100
C426        C  0.03711805  0.23005967  0.28981325     0.20500
C427        C  0.99329383  0.24391359  0.27074794    -0.03000
C428        C  0.99158469  0.27962643  0.23613844    -0.06100
C429        C  0.03369872  0.30132874  0.22082209     0.20800
C430        C  0.94781343  0.29397357  0.21730702     0.19000
C431        C  0.90619972  0.27200466  0.23289108    -0.19100
C432        C  0.90787223  0.23661829  0.26727223    -0.19800
C433        C  0.95123089  0.22255150  0.28668502     0.20500
C434        C  0.95329059  0.18804937  0.32219357    -0.32800
C435        C  0.99692399  0.17461374  0.34180150     0.01200
C436        C  0.03862523  0.19541209  0.32489993    -0.24200
C437        C  0.03183377  0.33746239  0.18727504    -0.28700
C438        C  0.98842390  0.35264258  0.16887274     0.06800
C439        C  0.94650234  0.33036931  0.18371741    -0.27400
H440        H  0.10966687  0.30326489  0.22835493     0.11600
H441        H  0.11267251  0.24138962  0.28828924     0.12700
H442        H  0.87225435  0.28245079  0.21875103     0.11800
H443        H  0.87525933  0.22053195  0.27893588     0.11000
H444        H  0.92098278  0.17202047  0.33486113     0.16400
H445        H  0.07241037  0.18553358  0.33975756     0.12300
H446        H  0.06428878  0.35423430  0.17595477     0.15200
H447        H  0.91281452  0.34158264  0.16965604     0.14900
loop_ 
_geom_bond_atom_site_label_1 
_geom_bond_atom_site_label_2 
_geom_bond_distance 
_geom_bond_site_symmetry_2 
_ccdc_geom_bond_type 
C1           N19   1.351       .  A
C1           C38   1.464   1_655  S
C1          C435   1.482       .  S
N2           N19   1.325       .  A
N2           N24   1.320   1_655  A
N2          Co39   2.088       .  S
C3           N28   1.344       .  A
C3           C41   1.464       .  S
C3           H48   1.082       .  S
H4           C45   1.082       .  S
C5           N29   1.340       .  A
C5            C9   1.462       .  S
C5           H34   1.081       .  S
Co6          N24   2.089       .  S
Co6          N14   2.088       .  S
Co6          N46   2.081       .  S
Co6          N22   2.088       .  S
Co6         Cl50   2.451   1_455  S
N7           C45   1.340       .  A
N7           N14   1.319   1_565  A
N7           Co8   2.076       .  S
Co8          N11   2.089       .  S
Co8          N28   2.094       .  S
Co8          N15   2.076       .  S
Co8         Cl50   2.449   1_465  S
C9           N47   1.351   1_655  A
C9          C411   1.480       .  S
N10          N17   1.319   1_565  A
N10          N40   1.325       .  A
N10         Co43   2.086       .  S
N11          N29   1.320   1_455  A
N11          N47   1.325       .  A
N12          C41   1.350   1_545  A
N12          N22   1.325       .  A
H13          C38   1.082       .  S
N14          N35   1.324       .  A
N15          N33   1.319   1_455  A
N15          N20   1.322       .  A
C16          N20   1.348   1_655  A
C16          C44   1.464       .  S
C16         C390   1.478       .  S
N17          C32   1.339       .  A
N17         Co39   2.079       .  S
C18          N46   1.340       .  A
C18          C21   1.461       .  S
C18          H52   1.081       .  S
C21          N42   1.351   1_455  A
C21         C363   1.479       .  S
N22          N28   1.320   1_545  A
N23          C49   1.343       .  A
N23          N25   1.320   1_545  A
N23         Co39   2.089       .  S
N24          C38   1.341       .  A
N25          N53   1.323       .  A
N25         Co43   2.084       .  S
H26          C49   1.082       .  S
H27          C44   1.082       .  S
N29         Co43   2.084       .  S
N30          N42   1.324       .  A
N30          N46   1.319   1_655  A
N30         Co39   2.083       .  S
C31          N35   1.352   1_565  A
C31          C45   1.459       .  S
C31         C315   1.478       .  S
C32          C51   1.458       .  S
C32          H36   1.081       .  S
N33          C44   1.343       .  A
N33         Co43   2.086       .  S
C37          N53   1.350   1_545  A
C37          C49   1.462       .  S
C37         C267   1.478       .  S
Co39        Cl50   2.450       .  S
N40          C51   1.350   1_565  A
C41         C294   1.483   1_565  S
Co43        Cl50   2.451   1_565  S
C51         C342   1.473       .  S
C54          N72   1.351   1_554  A
C54          C91   1.459       .  S
C54         C246   1.475       .  S
N55          N72   1.324       .  A
N55          N77   1.319   1_556  A
N55         Co92   2.082       .  S
C56          N81   1.338       .  A
C56          C94   1.461       .  S
C56         H101   1.081       .  S
H57          C98   1.082       .  S
C58          N82   1.342       .  A
C58          C62   1.464       .  S
C58          H87   1.082       .  S
Co59         N77   2.076       .  S
Co59         N67   2.097       .  S
Co59         N99   2.093       .  S
Co59         N75   2.082       .  S
Co59       Cl103   2.451   1_454  S
N60          C98   1.341       .  A
N60          N67   1.320   1_655  A
N60         Co61   2.080       .  S
Co61         N64   2.081       .  S
Co61         N81   2.079       .  S
Co61         N68   2.083       .  S
Co61       Cl103   2.449   1_554  S
C62         N100   1.350   1_556  A
C62         C195   1.481       .  S
N63          N70   1.319   1_655  A
N63          N93   1.326       .  A
N63         Co96   2.091       .  S
N64          N82   1.319   1_554  A
N64         N100   1.324       .  A
N65          C94   1.352   1_455  A
N65          N75   1.325       .  A
H66          C91   1.081       .  S
N67          N88   1.325       .  A
N68          N86   1.320   1_554  A
N68          N73   1.324       .  A
C69          N73   1.350   1_556  A
C69          C97   1.462       .  S
C69         C171   1.478       .  S
N70          C85   1.338       .  A
N70         Co92   2.080       .  S
C71          N99   1.342       .  A
C71          C74   1.464       .  S
C71         H105   1.082       .  S
C74          N95   1.348   1_554  A
C74         C219   1.478   1_554  S
N75          N81   1.319   1_455  A
N76         C102   1.341       .  A
N76          N78   1.319   1_455  A
N76         Co92   2.084       .  S
N77          C91   1.338       .  A
N78         N106   1.325       .  A
N78         Co96   2.088       .  S
H79         C102   1.082       .  S
H80          C97   1.081       .  S
N82         Co96   2.089       .  S
N83          N95   1.323       .  A
N83          N99   1.320   1_556  A
N83         Co92   2.079       .  S
C84          N88   1.353   1_655  A
C84          C98   1.461       .  S
C84         C438   1.483       .  S
C85         C104   1.461       .  S
C85          H89   1.081       .  S
N86          C97   1.341       .  A
N86         Co96   2.086       .  S
C90         N106   1.351   1_455  A
C90         C102   1.462       .  S
C90         C387   1.480       .  S
Co92       Cl103   2.450   1_455  S
N93         C104   1.353   1_655  A
C94         C414   1.479       .  S
Co96       Cl103   2.452       .  S
C104        C366   1.481       .  S
C107        N125   1.350   1_565  A
C107        C144   1.461       .  S
C107        C339   1.476       .  S
N108        N125   1.324       .  A
N108        N130   1.320   1_545  A
N108       Co145   2.084       .  S
C109        N134   1.339       .  A
C109        C147   1.460       .  S
C109        H154   1.083       .  S
H110        C151   1.080       .  S
C111        N135   1.343       .  A
C111        C115   1.462       .  S
C111        H140   1.082       .  S
Co112       N130   2.085       .  S
Co112       N120   2.082       .  S
Co112       N152   2.076       .  S
Co112       N128   2.083       .  S
Co112      Cl156   2.447   1_564  S
N113        C151   1.341       .  A
N113        N120   1.319   1_556  A
N113       Co114   2.084       .  S
Co114       N117   2.084       .  S
Co114       N134   2.080       .  S
Co114       N121   2.091       .  S
Co114      Cl156   2.451   1_565  S
C115        N153   1.349   1_545  A
C115        C270   1.477       .  S
N116        N123   1.319   1_556  A
N116        N146   1.324       .  A
N116       Co149   2.083       .  S
N117        N135   1.320   1_565  A
N117        N153   1.322       .  A
N118        C147   1.349   1_554  A
N118        N128   1.324       .  A
H119        C144   1.081       .  S
N120        N141   1.324       .  A
N121        N139   1.319   1_565  A
N121        N126   1.327       .  A
C122        N126   1.352   1_545  A
C122        C150   1.460       .  S
C122        C291   1.481       .  S
N123        C138   1.342       .  A
N123       Co145   2.088       .  S
C124        N152   1.339       .  A
C124        C127   1.460       .  S
C124        H158   1.080       .  S
C127        N148   1.351   1_565  A
C127        C318   1.477       .  S
N128        N134   1.320   1_554  A
N129        C155   1.339       .  A
N129        N131   1.320   1_554  A
N129       Co145   2.081       .  S
N130        C144   1.341       .  A
N131        N159   1.323       .  A
N131       Co149   2.085       .  S
H132        C155   1.080       .  S
H133        C150   1.082       .  S
N135       Co149   2.086       .  S
N136        N148   1.324       .  A
N136        N152   1.318   1_545  A
N136       Co145   2.084       .  S
C137        N141   1.350   1_556  A
C137        C151   1.462       .  S
C137        C174   1.479       .  S
C138        C157   1.464       .  S
C138        H142   1.082       .  S
N139        C150   1.341       .  A
N139       Co149   2.086       .  S
C143        N159   1.351   1_554  A
C143        C155   1.461       .  S
C143        C243   1.476       .  S
Co145      Cl156   2.452   1_554  S
N146        C157   1.350   1_556  A
C147        C222   1.473       .  S
Co149      Cl156   2.451       .  S
C157        C198   1.481       .  S
C160        H176   1.082       .  S
C160        C161   1.399       .  A
C160        C165   1.404       .  A
C161        H177   1.085       .  S
C161        C162   1.403       .  A
C162        C172   1.402       .  A
C162        C163   1.412   1_554  A
C163        C169   1.411       .  A
C163        C164   1.412       .  A
C164        C166   1.412       .  A
C164        C165   1.411   1_556  A
C165        C173   1.403       .  A
C166        C175   1.403       .  A
C166        C167   1.404       .  A
C167        H178   1.083       .  S
C167        C168   1.399       .  A
C168        H179   1.083       .  S
C168        C169   1.404       .  A
C169        C170   1.403       .  A
C170        H180   1.081       .  S
C170        C171   1.406       .  A
C171        C172   1.406   1_556  A
C172        H181   1.085       .  S
C173        H182   1.083       .  S
C173        C174   1.407   1_554  A
C174        C175   1.406       .  A
C175        H183   1.084       .  S
C184        H200   1.084       .  S
C184        C185   1.399       .  A
C184        C189   1.404       .  A
C185        H201   1.085       .  S
C185        C186   1.404       .  A
C186        C196   1.404       .  A
C186        C187   1.411   1_554  A
C187        C193   1.412       .  A
C187        C188   1.413       .  A
C188        C190   1.411       .  A
C188        C189   1.412   1_556  A
C189        C197   1.404       .  A
C190        C199   1.403       .  A
C190        C191   1.404       .  A
C191        H202   1.083       .  S
C191        C192   1.399       .  A
C192        H203   1.085       .  S
C192        C193   1.403       .  A
C193        C194   1.403       .  A
C194        H204   1.085       .  S
C194        C195   1.406       .  A
C195        C196   1.408   1_556  A
C196        H205   1.086       .  S
C197        H206   1.084       .  S
C197        C198   1.407       .  A
C198        C199   1.407   1_554  A
C199        H207   1.084       .  S
C208        H224   1.084       .  S
C208        C209   1.398       .  A
C208        C213   1.403       .  A
C209        H225   1.084       .  S
C209        C210   1.403       .  A
C210        C220   1.401       .  A
C210        C211   1.411       .  A
C211        C217   1.412   1_556  A
C211        C212   1.411       .  A
C212        C214   1.412   1_556  A
C212        C213   1.412       .  A
C213        C221   1.401       .  A
C214        C223   1.402       .  A
C214        C215   1.403       .  A
C215        H226   1.084       .  S
C215        C216   1.399       .  A
C216        H227   1.084       .  S
C216        C217   1.403       .  A
C217        C218   1.403       .  A
C218        H228   1.084       .  S
C218        C219   1.405   1_554  A
C219        C220   1.406       .  A
C220        H229   1.085       .  S
C221        H230   1.084       .  S
C221        C222   1.404       .  A
C222        C223   1.405   1_556  A
C223        H231   1.085       .  S
C232        H248   1.084       .  S
C232        C233   1.398       .  A
C232        C237   1.403       .  A
C233        H249   1.083       .  S
C233        C234   1.403       .  A
C234        C244   1.401       .  A
C234        C235   1.411       .  A
C235        C241   1.411   1_554  A
C235        C236   1.410       .  A
C236        C238   1.412   1_554  A
C236        C237   1.411       .  A
C237        C245   1.401       .  A
C238        C247   1.401       .  A
C238        C239   1.403       .  A
C239        H250   1.085       .  S
C239        C240   1.398       .  A
C240        H251   1.082       .  S
C240        C241   1.403       .  A
C241        C242   1.401       .  A
C242        H252   1.083       .  S
C242        C243   1.405   1_556  A
C243        C244   1.406       .  A
C244        H253   1.083       .  S
C245        H254   1.082       .  S
C245        C246   1.406       .  A
C246        C247   1.405   1_554  A
C247        H255   1.085       .  S
C256        H272   1.083       .  S
C256        C257   1.397       .  A
C256        C261   1.403       .  A
C257        H273   1.084       .  S
C257        C258   1.403       .  A
C258        C268   1.401       .  A
C258        C259   1.412   1_565  A
C259        C265   1.412       .  A
C259        C260   1.412       .  A
C260        C262   1.412       .  A
C260        C261   1.411   1_545  A
C261        C269   1.399       .  A
C262        C271   1.407       .  A
C262        C263   1.404       .  A
C263        H274   1.083       .  S
C263        C264   1.401       .  A
C264        H275   1.084       .  S
C264        C265   1.404       .  A
C265        C266   1.406       .  A
C266        H276   1.084       .  S
C266        C267   1.407       .  A
C267        C268   1.405   1_545  A
C268        H277   1.085       .  S
C269        H278   1.084       .  S
C269        C270   1.404   1_565  A
C270        C271   1.407       .  A
C271        H279   1.084       .  S
C280        H296   1.083       .  S
C280        C281   1.398       .  A
C280        C285   1.404       .  A
C281        H297   1.085       .  S
C281        C282   1.403       .  A
C282        C292   1.403       .  A
C282        C283   1.412       .  A
C283        C289   1.412   1_545  A
C283        C284   1.414       .  A
C284        C286   1.412   1_545  A
C284        C285   1.411       .  A
C285        C293   1.403       .  A
C286        C295   1.407       .  A
C286        C287   1.404       .  A
C287        H298   1.085       .  S
C287        C288   1.401       .  A
C288        H299   1.083       .  S
C288        C289   1.405       .  A
C289        C290   1.408       .  A
C290        H300   1.085       .  S
C290        C291   1.407   1_565  A
C291        C292   1.406       .  A
C292        H301   1.085       .  S
C293        H302   1.084       .  S
C293        C294   1.407       .  A
C294        C295   1.407   1_545  A
C295        H303   1.085       .  S
C304        H320   1.081       .  S
C304        C305   1.399       .  A
C304        C309   1.405       .  A
C305        H321   1.086       .  S
C305        C306   1.403       .  A
C306        C316   1.403       .  A
C306        C307   1.412       .  A
C307        C313   1.411   1_565  A
C307        C308   1.411       .  A
C308        C310   1.412   1_565  A
C308        C309   1.411       .  A
C309        C317   1.403       .  A
C310        C319   1.401       .  A
C310        C311   1.402       .  A
C311        H322   1.086       .  S
C311        C312   1.398       .  A
C312        H323   1.081       .  S
C312        C313   1.404       .  A
C313        C314   1.401       .  A
C314        H324   1.083       .  S
C314        C315   1.405   1_545  A
C315        C316   1.407       .  A
C316        H325   1.084       .  S
C317        H326   1.081       .  S
C317        C318   1.408       .  A
C318        C319   1.404   1_565  A
C319        H327   1.086       .  S
C328        H344   1.083       .  S
C328        C329   1.398       .  A
C328        C333   1.403       .  A
C329        H345   1.083       .  S
C329        C330   1.403       .  A
C330        C340   1.401       .  A
C330        C331   1.411       .  A
C331        C337   1.412   1_545  A
C331        C332   1.411       .  A
C332        C334   1.412   1_545  A
C332        C333   1.412       .  A
C333        C341   1.401       .  A
C334        C343   1.403       .  A
C334        C335   1.403       .  A
C335        H346   1.084       .  S
C335        C336   1.399       .  A
C336        H347   1.083       .  S
C336        C337   1.404       .  A
C337        C338   1.403       .  A
C338        H348   1.083       .  S
C338        C339   1.405       .  A
C339        C340   1.405   1_565  A
C340        H349   1.083       .  S
C341        H350   1.084       .  S
C341        C342   1.405       .  A
C342        C343   1.404   1_545  A
C343        H351   1.084       .  S
C352        H368   1.084       .  S
C352        C353   1.398       .  A
C352        C357   1.404       .  A
C353        H369   1.084       .  S
C353        C354   1.403       .  A
C354        C364   1.403       .  A
C354        C355   1.412       .  A
C355        C361   1.411   1_455  A
C355        C356   1.412       .  A
C356        C358   1.412   1_455  A
C356        C357   1.410       .  A
C357        C365   1.402       .  A
C358        C367   1.404       .  A
C358        C359   1.404       .  A
C359        H370   1.083       .  S
C359        C360   1.399       .  A
C360        H371   1.083       .  S
C360        C361   1.403       .  A
C361        C362   1.402       .  A
C362        H372   1.084       .  S
C362        C363   1.406   1_655  A
C363        C364   1.407       .  A
C364        H373   1.083       .  S
C365        H374   1.082       .  S
C365        C366   1.407       .  A
C366        C367   1.406   1_455  A
C367        H375   1.084       .  S
C376        H392   1.083       .  S
C376        C377   1.398       .  A
C376        C381   1.403       .  A
C377        H393   1.084       .  S
C377        C378   1.403       .  A
C378        C388   1.403       .  A
C378        C379   1.412   1_455  A
C379        C385   1.411       .  A
C379        C380   1.412       .  A
C380        C382   1.412       .  A
C380        C381   1.410   1_655  A
C381        C389   1.401       .  A
C382        C391   1.404       .  A
C382        C383   1.404       .  A
C383        H394   1.083       .  S
C383        C384   1.400       .  A
C384        H395   1.083       .  S
C384        C385   1.404       .  A
C385        C386   1.404       .  A
C386        H396   1.084       .  S
C386        C387   1.407   1_655  A
C387        C388   1.406       .  A
C388        H397   1.083       .  S
C389        H398   1.083       .  S
C389        C390   1.406   1_455  A
C390        C391   1.406       .  A
C391        H399   1.083       .  S
C400        H416   1.083       .  S
C400        C401   1.398       .  A
C400        C405   1.403       .  A
C401        H417   1.083       .  S
C401        C402   1.403       .  A
C402        C412   1.402       .  A
C402        C403   1.412       .  A
C403        C409   1.411   1_655  A
C403        C404   1.412       .  A
C404        C406   1.412   1_655  A
C404        C405   1.410       .  A
C405        C413   1.400       .  A
C406        C415   1.405       .  A
C406        C407   1.404       .  A
C407        H418   1.083       .  S
C407        C408   1.400       .  A
C408        H419   1.084       .  S
C408        C409   1.404       .  A
C409        C410   1.404       .  A
C410        H420   1.084       .  S
C410        C411   1.407   1_455  A
C411        C412   1.406       .  A
C412        H421   1.082       .  S
C413        H422   1.082       .  S
C413        C414   1.406       .  A
C414        C415   1.407   1_655  A
C415        H423   1.084       .  S
C424        H440   1.083       .  S
C424        C425   1.397       .  A
C424        C429   1.403       .  A
C425        H441   1.084       .  S
C425        C426   1.402       .  A
C426        C436   1.401       .  A
C426        C427   1.411   1_455  A
C427        C433   1.411       .  A
C427        C428   1.413       .  A
C428        C430   1.411       .  A
C428        C429   1.411   1_655  A
C429        C437   1.401       .  A
C430        C439   1.407       .  A
C430        C431   1.405       .  A
C431        H442   1.084       .  S
C431        C432   1.402       .  A
C432        H443   1.082       .  S
C432        C433   1.405       .  A
C433        C434   1.407       .  A
C434        H444   1.083       .  S
C434        C435   1.409       .  A
C435        C436   1.405   1_655  A
C436        H445   1.084       .  S
C437        H446   1.084       .  S
C437        C438   1.405   1_455  A
C438        C439   1.410       .  A
C439        H447   1.083       .  S
