geometry optimzed in LAMMPS
_audit_creation_date              2020-11-30 
_audit_creation_method            'lammps2cif' 
_symmetry_space_group_name_H-M    'P1' 
_symmetry_Int_Tables_number       1 
_symmetry_cell_setting            triclinic 
loop_ 
_symmetry_equiv_pos_as_xyz 
  x,y,z 
_cell_length_a                    25.03060047 
_cell_length_b                    24.87181821256679 
_cell_length_c                    33.89146538768537 
_cell_angle_alpha                 90.48183138855246 
_cell_angle_beta                  90.30490971563623 
_cell_angle_gamma                 90.06382678480531 
loop_ 
_atom_site_label 
_atom_site_type_symbol 
_atom_site_fract_x 
_atom_site_fract_y 
_atom_site_fract_z 
_atom_site_charge 
C1          C  0.75268775  0.22180567  0.99974989     0.03900
C2          C  0.77381138  0.20221737  0.46400578    -0.12300
C3          C  0.81256676  0.16152188  0.46412960     0.01400
C4          C  0.82950293  0.14016589  0.00021125    -0.10800
C5          C  0.80931270  0.15956588  0.03605663     0.03900
C6          C  0.77008291  0.19974338  0.03572282    -0.10200
H7          H  0.76122111  0.21966959  0.43628967     0.09500
H8          H  0.85996038  0.10918909  0.00051169     0.07000
H9          H  0.75535942  0.21590954  0.06339344     0.06800
C10         C  0.23338429  0.77605661  0.49939811     0.03900
C11         C  0.21468632  0.79707516  0.46344440    -0.12300
C12         C  0.17649598  0.83828239  0.46318069     0.01400
C13         C  0.15634659  0.85755955  0.49908127    -0.10800
C14         C  0.17494471  0.83761591  0.03515328     0.03900
C15         C  0.21351744  0.79681912  0.03517211    -0.10200
H16         H  0.23006176  0.78166152  0.43574649     0.09500
H17         H  0.12560105  0.88821782  0.49894949     0.07000
H18         H  0.22914772  0.78233056  0.06298896     0.06800
Zn19       Zn  0.46656942  0.53660887  0.04650541     1.49700
Zn20       Zn  0.57675500  0.51649290  0.49972364     1.49400
Zn21       Zn  0.48313986  0.42657918  0.50076354     1.49100
Zn22       Zn  0.46672270  0.53659025  0.45382359     1.49500
O23         O  0.49880982  0.50390694  0.50015847    -1.83400
O24         O  0.52259139  0.57346947  0.07875464    -0.74000
O25         O  0.61663592  0.44534072  0.49881535    -0.73800
O26         O  0.44293525  0.40401005  0.04952815    -0.73400
O27         O  0.59983202  0.55844490  0.04874065    -0.74000
O28         O  0.43308803  0.48147533  0.08123307    -0.73600
O29         O  0.55135875  0.38469304  0.50085827    -0.74200
O30         O  0.42875653  0.48085861  0.42104205    -0.73600
O31         O  0.59919583  0.55890002  0.45146905    -0.74400
O32         O  0.44050850  0.40400401  0.45273072    -0.73800
O33         O  0.52219145  0.57077743  0.42012333    -0.74200
O34         O  0.41425604  0.59472963  0.46768799    -0.74100
O35         O  0.41011897  0.59107401  0.03301102    -0.73900
C36         C  0.57313081  0.57854076  0.07721643     0.77900
C37         C  0.60078636  0.39661145  0.49999476     0.78400
C38         C  0.42645993  0.43083356  0.07920025     0.77300
C39         C  0.42191114  0.43025624  0.42364024     0.77700
C40         C  0.57249803  0.57734826  0.42244264     0.78800
C41         C  0.39506211  0.61092258  0.50033335     0.77900
C42         C  0.27762194  0.26167392  0.24900767     0.03900
C43         C  0.29440750  0.28409030  0.28533374    -0.12300
C44         C  0.33282848  0.32494419  0.28656302     0.01400
C45         C  0.35480592  0.34353474  0.25140971    -0.10800
C46         C  0.33771927  0.32317813  0.21481938     0.03900
C47         C  0.29981623  0.28146550  0.21375281    -0.10200
H48         H  0.27596008  0.27174169  0.31263634     0.09500
H49         H  0.38480347  0.37500173  0.25256976     0.07000
H50         H  0.28647691  0.26569554  0.18550335     0.06800
C51         C  0.73821128  0.72667510  0.25153420     0.03900
C52         C  0.71864057  0.70682408  0.28736991    -0.12300
C53         C  0.67609332  0.67006017  0.28736341     0.01400
C54         C  0.65454156  0.65215000  0.25134208    -0.10800
C55         C  0.67397977  0.67136219  0.21540391     0.03900
C56         C  0.71602386  0.70859856  0.21565095    -0.10200
H57         H  0.73488166  0.72170711  0.31508668     0.09500
H58         H  0.62233322  0.62296341  0.25134407     0.07000
H59         H  0.73075462  0.72438655  0.18804168     0.06800
Zn60       Zn  0.02650950  0.03783665  0.20333806     1.49700
Zn61       Zn  0.91955415  0.01402536  0.25006071     1.48800
Zn62       Zn  0.01590673  0.92600469  0.24916375     1.49100
Zn63       Zn  0.02960563  0.03732827  0.29579570     1.49500
O64         O  0.99752201  0.00327913  0.24964928    -1.83400
O65         O  0.96888546  0.07073884  0.17061330    -0.74000
O66         O  0.88303288  0.94194951  0.25023393    -0.73800
O67         O  0.05820409  0.90587498  0.20009927    -0.73400
O68         O  0.89298257  0.05414609  0.20154961    -0.74000
O69         O  0.06375681  0.98411934  0.16953593    -0.73600
O70         O  0.94836952  0.88134542  0.25014659    -0.74200
O71         O  0.06635722  0.98316799  0.32936091    -0.73600
O72         O  0.89632826  0.05495514  0.29920679    -0.74400
O73         O  0.06013869  0.90548883  0.29717694    -0.73800
O74         O  0.97349527  0.07253014  0.32916553    -0.74200
O75         O  0.08623179  0.09124927  0.28165307    -0.74100
O76         O  0.08117849  0.09445626  0.21640382    -0.73900
C77         C  0.91827638  0.07407979  0.17256749     0.77900
C78         C  0.89883971  0.89324965  0.25044993     0.78400
C79         C  0.07407157  0.93417256  0.17121054     0.77300
C80         C  0.07639007  0.93316928  0.32668960     0.77700
C81         C  0.92273438  0.07557953  0.32785898     0.78800
C82         C  0.10207712  0.10979606  0.24885662     0.77900
C83         C  0.83092889  0.75837024  0.26597825    -0.20600
C84         C  0.77948393  0.76893640  0.25149025    -0.08600
C85         C  0.76746956  0.82014676  0.23685911     0.30200
C86         C  0.80645333  0.86028519  0.23684139    -0.20600
C87         C  0.85835195  0.84986304  0.25083515    -0.08600
C88         C  0.87037288  0.79828710  0.26534939     0.30300
F89         F  0.91974427  0.78670381  0.27966541    -0.19100
H90         H  0.84060216  0.71899271  0.27742065     0.18600
H91         H  0.79608786  0.89953186  0.22549570     0.18600
F92         F  0.71769456  0.83154135  0.22321153    -0.19100
C93         C  0.18688556  0.14560152  0.27742889    -0.20600
C94         C  0.14680428  0.14853186  0.24842619    -0.08600
C95         C  0.15115366  0.18720690  0.21860653     0.30200
C96         C  0.19394549  0.22336511  0.21874438    -0.20600
C97         C  0.23401123  0.22088523  0.24796625    -0.08600
C98         C  0.23049242  0.18067957  0.27694107     0.30300
F99         F  0.26970611  0.17430381  0.30432170    -0.19100
H100        H  0.18509471  0.11516995  0.30008316     0.18600
H101        H  0.19494398  0.25415656  0.19636454     0.18600
F102        F  0.11326543  0.19116097  0.18997432    -0.19100
C103        C  0.39737592  0.34628038  0.11323111    -0.20600
C104        C  0.40023249  0.40285111  0.11245881    -0.08600
C105        C  0.37964086  0.43228924  0.14465575     0.30200
C106        C  0.35812168  0.40574745  0.17690456    -0.20600
C107        C  0.35689367  0.34936552  0.17834236    -0.08600
C108        C  0.37596506  0.31966210  0.14587313     0.30300
F109        F  0.37616111  0.26510829  0.14639431    -0.19100
H110        H  0.41294188  0.32249282  0.08898620     0.18600
H111        H  0.34279376  0.42957245  0.20123863     0.18600
F112        F  0.38083951  0.48685959  0.14554727    -0.19100
C113        C  0.37099964  0.31991832  0.35470337    -0.20600
C114        C  0.34891643  0.35061551  0.32419411    -0.08600
C115        C  0.34611244  0.40672194  0.32847474     0.30200
C116        C  0.36797827  0.43192676  0.36167705    -0.20600
C117        C  0.39314177  0.40177737  0.39133547    -0.08600
C118        C  0.39310784  0.34515647  0.38808178     0.30300
F119        F  0.41649589  0.31421725  0.41607370    -0.19100
H120        H  0.37328803  0.27657336  0.35183082     0.18600
H121        H  0.36639658  0.47538183  0.36357801     0.18600
F122        F  0.32312512  0.43727548  0.30004910    -0.19100
C123        C  0.56938844  0.63033384  0.14033566    -0.20600
C124        C  0.60046301  0.60719979  0.11018939    -0.08600
C125        C  0.65661091  0.60966548  0.11346392     0.30200
C126        C  0.68057527  0.63247529  0.14713369    -0.20600
C127        C  0.64908857  0.65292307  0.17797184    -0.08600
C128        C  0.59325473  0.65291805  0.17376785     0.30300
F129        F  0.56160018  0.67443007  0.20221799    -0.19100
H130        H  0.52617748  0.63005079  0.13856948     0.18600
H131        H  0.72371465  0.63233417  0.14979955     0.18600
F132        F  0.68839466  0.58860140  0.08495106    -0.19100
C133        C  0.59605999  0.65673118  0.32911713    -0.20600
C134        C  0.65146855  0.65179635  0.32448179    -0.08600
C135        C  0.68158322  0.62610053  0.35386984     0.30200
C136        C  0.65599659  0.60339164  0.38644044    -0.20600
C137        C  0.60006206  0.60607999  0.39016763    -0.08600
C138        C  0.57049961  0.63443090  0.36155868     0.30300
F139        F  0.51670398  0.64008992  0.36440901    -0.19100
H140        H  0.57231967  0.67712364  0.30701955     0.18600
H141        H  0.67979224  0.58209010  0.40799452     0.18600
F142        F  0.73521125  0.62034900  0.34998647    -0.19100
C143        C  0.10996996  0.85287597  0.13567507    -0.20600
C144        C  0.10446881  0.90909458  0.13840624    -0.08600
C145        C  0.12675621  0.94116471  0.10853548     0.30200
C146        C  0.15133150  0.91736549  0.07604903    -0.20600
C147        C  0.15447916  0.86128014  0.07235175    -0.08600
C148        C  0.13478981  0.82905753  0.10294114     0.30300
F149        F  0.13695157  0.77463019  0.10024680    -0.19100
H150        H  0.09361300  0.82720183  0.15825370     0.18600
H151        H  0.16718066  0.94296792  0.05319846     0.18600
F152        F  0.12420989  0.99567031  0.11010685    -0.19100
C153        C  0.12897375  0.94043663  0.38910990    -0.20600
C154        C  0.10692352  0.90763886  0.35917507    -0.08600
C155        C  0.11286267  0.85140877  0.36192867     0.30200
C156        C  0.13769124  0.82886101  0.39507001    -0.20600
C157        C  0.15693139  0.86189025  0.42582979    -0.08600
C158        C  0.15377785  0.91799221  0.42194217     0.30300
F159        F  0.17416035  0.95127258  0.45022178    -0.19100
H160        H  0.12623708  0.98380049  0.38759226     0.18600
H161        H  0.13991419  0.78554946  0.39745971     0.18600
F162        F  0.09308933  0.81806949  0.33349734    -0.19100
C163        C  0.30915289  0.64869883  0.02434437    -0.20600
C164        C  0.35424853  0.65341295  0.50026196    -0.08600
C165        C  0.35959873  0.69855113  0.47594370     0.30200
C166        C  0.32020934  0.73831646  0.47582339    -0.20600
C167        C  0.27470828  0.73346944  0.49964716    -0.08600
C168        C  0.26934913  0.68801673  0.02378930     0.30300
F169        F  0.22491205  0.68079544  0.04591905    -0.19100
H170        H  0.30416421  0.61380579  0.04292834     0.18600
H171        H  0.32557036  0.77333616  0.45743653     0.18600
F172        F  0.40364248  0.70494210  0.45323940    -0.19100
C173        C  0.83280650  0.09756847  0.13689831    -0.20600
C174        C  0.88896162  0.10044079  0.13973379    -0.08600
C175        C  0.91731644  0.12650577  0.10952731     0.30200
C176        C  0.89048182  0.14677483  0.07682466    -0.20600
C177        C  0.83490524  0.14204368  0.07322636    -0.08600
C178        C  0.80586498  0.11833724  0.10391277     0.30300
F179        F  0.75200150  0.11301250  0.10112723    -0.19100
H180        H  0.80986337  0.07789148  0.15962094     0.18600
H181        H  0.91343991  0.16564359  0.05370563     0.18600
F182        F  0.97127875  0.13179163  0.11095757    -0.19100
C183        C  0.83793032  0.10522060  0.36124421    -0.20600
C184        C  0.89416005  0.10210052  0.36108840    -0.08600
C185        C  0.92265329  0.12211181  0.39410057     0.30200
C186        C  0.89553027  0.14268469  0.42666604    -0.20600
C187        C  0.83954253  0.14400534  0.42740606    -0.08600
C188        C  0.81076805  0.12611609  0.39406597     0.30300
F189        F  0.75654117  0.12645442  0.39393842    -0.19100
H190        H  0.81484451  0.09028902  0.33636690     0.18600
H191        H  0.91849034  0.15699586  0.45182837     0.18600
F192        F  0.97683391  0.12070060  0.39567313    -0.19100
C193        C  0.66574528  0.26202733  0.01990779    -0.20600
C194        C  0.71420728  0.26692579  0.49975718    -0.08600
C195        C  0.72590059  0.31534477  0.48036909     0.30200
C196        C  0.68934124  0.35788349  0.48109309    -0.20600
C197        C  0.64026193  0.35247592  0.50054401    -0.08600
C198        C  0.62885890  0.30411526  0.02009821     0.30300
F199        F  0.58245083  0.29782726  0.04010069    -0.19100
H200        H  0.65620551  0.22518761  0.03520527     0.18600
H201        H  0.69903289  0.39477051  0.46591576     0.18600
F202        F  0.77310046  0.32189361  0.46144906    -0.19100
C203        C  0.75265214  0.22176957  0.49974750     0.03900
C204        C  0.77384482  0.20225175  0.96400828    -0.12300
C205        C  0.81259784  0.16155436  0.96413216     0.01400
C206        C  0.82947009  0.14013199  0.50020862    -0.10800
C207        C  0.80927916  0.15953076  0.53605412     0.03900
C208        C  0.77004757  0.19970678  0.53572037    -0.10200
H209        H  0.76125312  0.21970281  0.93629187     0.09500
H210        H  0.85992928  0.10915657  0.50050911     0.07000
H211        H  0.75532440  0.21587286  0.56339108     0.06800
C212        C  0.23339110  0.77605882  0.99939693     0.03900
C213        C  0.21469444  0.79707717  0.96344277    -0.12300
C214        C  0.17650196  0.83828274  0.96317826     0.01400
C215        C  0.15635083  0.85755880  0.99907889    -0.10800
C216        C  0.17494025  0.83761561  0.53515537     0.03900
C217        C  0.21351210  0.79681773  0.53517365    -0.10200
H218        H  0.23007227  0.78166421  0.93574527     0.09500
H219        H  0.12560364  0.88821528  0.99894703     0.07000
H220        H  0.22914300  0.78232923  0.56299062     0.06800
Zn221      Zn  0.46655870  0.53660404  0.54650104     1.49700
Zn222      Zn  0.57676381  0.51650977  0.99972406     1.49400
Zn223      Zn  0.48315812  0.42658710  0.00076292     1.49100
Zn224      Zn  0.46672751  0.53659712  0.95382791     1.49500
O225        O  0.49882026  0.50391614  0.00016095    -1.83400
O226        O  0.52258067  0.57346394  0.57874975    -0.74000
O227        O  0.61665233  0.44536304  0.99881412    -0.73800
O228        O  0.44291234  0.40400808  0.54952893    -0.73400
O229        O  0.59982320  0.55842785  0.54874134    -0.74000
O230        O  0.43307446  0.48147600  0.58123162    -0.73600
O231        O  0.55138108  0.38470882  0.00085489    -0.74200
O232        O  0.42875902  0.48086545  0.92104804    -0.73600
O233        O  0.59919724  0.55891931  0.95147012    -0.74400
O234        O  0.44052400  0.40400932  0.95273177    -0.73800
O235        O  0.52219055  0.57078711  0.92012541    -0.74200
O236        O  0.41426244  0.59473483  0.96769502    -0.74100
O237        O  0.41011068  0.59106945  0.53300389    -0.73900
C238        C  0.57312078  0.57852949  0.57721450     0.77900
C239        C  0.60080749  0.39663229  0.99999218     0.78400
C240        C  0.42644134  0.43083486  0.57920084     0.77300
C241        C  0.42191862  0.43026224  0.92364442     0.77700
C242        C  0.57249631  0.57736369  0.92244407     0.78800
C243        C  0.39506972  0.61092747  0.00034072     0.77900
C244        C  0.27760218  0.26169051  0.74901676     0.03900
C245        C  0.29439201  0.28410383  0.78534287    -0.12300
C246        C  0.33281692  0.32495414  0.78657180     0.01400
C247        C  0.35479417  0.34354390  0.75141806    -0.10800
C248        C  0.33770269  0.32319139  0.71482758     0.03900
C249        C  0.29979533  0.28148265  0.71376167    -0.10200
H250        H  0.27594544  0.27175524  0.81264598     0.09500
H251        H  0.38479557  0.37500705  0.75257820     0.07000
H252        H  0.28645235  0.26571518  0.68551235     0.06800
C253        C  0.73819631  0.72667946  0.75152835     0.03900
C254        C  0.71862426  0.70683362  0.78736445    -0.12300
C255        C  0.67607570  0.67007206  0.78735937     0.01400
C256        C  0.65452307  0.65215987  0.75133885    -0.10800
C257        C  0.67396269  0.67136804  0.71539972     0.03900
C258        C  0.71600796  0.70860371  0.71564551    -0.10200
H259        H  0.73486726  0.72171751  0.81508060     0.09500
H260        H  0.62231415  0.62297384  0.75134229     0.07000
H261        H  0.73073922  0.72439120  0.68803615     0.06800
Zn262      Zn  0.02650007  0.03783792  0.70333754     1.49700
Zn263      Zn  0.91954715  0.01402512  0.75006450     1.48800
Zn264      Zn  0.01589784  0.92600235  0.74916261     1.49100
Zn265      Zn  0.02960280  0.03732338  0.79579420     1.49500
O266        O  0.99751494  0.00327742  0.74964889    -1.83400
O267        O  0.96887143  0.07073221  0.67061123    -0.74000
O268        O  0.88302449  0.94195022  0.75024316    -0.73800
O269        O  0.05819578  0.90587548  0.70009864    -0.73400
O270        O  0.89297147  0.05413802  0.70155116    -0.74000
O271        O  0.06375137  0.98412093  0.66953672    -0.73600
O272        O  0.94835884  0.88134479  0.75014019    -0.74200
O273        O  0.06635537  0.98316279  0.82935766    -0.73600
O274        O  0.89632645  0.05496238  0.79920878    -0.74400
O275        O  0.06013033  0.90548236  0.79717632    -0.73800
O276        O  0.97349733  0.07252761  0.82916482    -0.74200
O277        O  0.08622642  0.09124525  0.78165183    -0.74100
O278        O  0.08116527  0.09446400  0.71640338    -0.73900
C279        C  0.91826201  0.07406923  0.67256655     0.77900
C280        C  0.89882916  0.89324945  0.75045071     0.78400
C281        C  0.07406508  0.93417375  0.67121089     0.77300
C282        C  0.07638598  0.93316360  0.82668747     0.77700
C283        C  0.92273707  0.07558442  0.82785960     0.78800
C284        C  0.10206671  0.10979944  0.74885647     0.77900
C285        C  0.83093935  0.75834104  0.76591092    -0.20600
C286        C  0.77946981  0.76893746  0.75148482    -0.08600
C287        C  0.76743024  0.82017507  0.73691756     0.30200
C288        C  0.80641527  0.86031238  0.73690149    -0.20600
C289        C  0.85833903  0.84986295  0.75083437    -0.08600
C290        C  0.87038331  0.79825783  0.76528467     0.30300
F291        F  0.91977953  0.78664245  0.77953902    -0.19100
H292        H  0.84063075  0.71894071  0.77730377     0.18600
H293        H  0.79602935  0.89958060  0.72560492     0.18600
F294        F  0.71763124  0.83159466  0.72332983    -0.19100
C295        C  0.18687053  0.14561109  0.77743260    -0.20600
C296        C  0.14679075  0.14853944  0.74842854    -0.08600
C297        C  0.15113752  0.18721851  0.71861152     0.30200
C298        C  0.19392593  0.22338101  0.71875263    -0.20600
C299        C  0.23399111  0.22090182  0.74797510    -0.08600
C300        C  0.23047395  0.18069363  0.77694815     0.30300
F301        F  0.26968655  0.17431889  0.80432975    -0.19100
H302        H  0.18508142  0.11517725  0.80008558     0.18600
H303        H  0.19492268  0.25417460  0.69637423     0.18600
F304        F  0.11325018  0.19117198  0.68997864    -0.19100
C305        C  0.39733984  0.34628718  0.61323122    -0.20600
C306        C  0.40021445  0.40285703  0.61246201    -0.08600
C307        C  0.37964282  0.43229798  0.64466474     0.30200
C308        C  0.35812445  0.40575935  0.67691534    -0.20600
C309        C  0.35687826  0.34937747  0.67834982    -0.08600
C310        C  0.37593060  0.31967192  0.64587519     0.30300
F311        F  0.37610966  0.26511794  0.64639225    -0.19100
H312        H  0.41289030  0.32249736  0.58898200     0.18600
H313        H  0.34281095  0.42958699  0.70125310     0.18600
F314        F  0.38086121  0.48686784  0.64556053    -0.19100
C315        C  0.37099494  0.31992564  0.85471047    -0.20600
C316        C  0.34890913  0.35062381  0.82420268    -0.08600
C317        C  0.34610761  0.40673029  0.82848385     0.30200
C318        C  0.36797841  0.43193409  0.86168474    -0.20600
C319        C  0.39314485  0.40178390  0.89134134    -0.08600
C320        C  0.39310824  0.34516292  0.88808758     0.30300
F321        F  0.41649785  0.31422279  0.91607825    -0.19100
H322        H  0.37328136  0.27658061  0.85183761     0.18600
H323        H  0.36639833  0.47538948  0.86358580     0.18600
F324        F  0.32311822  0.43728489  0.80005974    -0.19100
C325        C  0.56937530  0.63032732  0.64033168    -0.20600
C326        C  0.60045157  0.60718965  0.61018774    -0.08600
C327        C  0.65659924  0.60965459  0.61346436     0.30200
C328        C  0.68056170  0.63246977  0.64713302    -0.20600
C329        C  0.64907338  0.65292315  0.67796833    -0.08600
C330        C  0.59323969  0.65291628  0.67376296     0.30300
F331        F  0.56158332  0.67443137  0.70221077    -0.19100
H332        H  0.52616460  0.63004405  0.63856431     0.18600
H333        H  0.72370102  0.63232873  0.64980037     0.18600
F334        F  0.68838449  0.58858534  0.58495447    -0.19100
C335        C  0.59604669  0.65674699  0.82911797    -0.20600
C336        C  0.65145440  0.65180981  0.82447889    -0.08600
C337        C  0.68157250  0.62611445  0.85386513     0.30200
C338        C  0.65598988  0.60340700  0.88643764    -0.20600
C339        C  0.60005607  0.60609674  0.89016841    -0.08600
C340        C  0.57049031  0.63444852  0.86156190     0.30300
F341        F  0.51669540  0.64011001  0.86441701    -0.19100
H342        H  0.57230443  0.67713964  0.80702201     0.18600
H343        H  0.67978771  0.58210499  0.90798996     0.18600
F344        F  0.73519988  0.62036154  0.84997807    -0.19100
C345        C  0.10996282  0.85287672  0.63567588    -0.20600
C346        C  0.10446298  0.90909547  0.63840715    -0.08600
C347        C  0.12675208  0.94116524  0.60853695     0.30200
C348        C  0.15132849  0.91736556  0.57605118    -0.20600
C349        C  0.15447510  0.86128012  0.57235383    -0.08600
C350        C  0.13478333  0.82905777  0.60294249     0.30300
F351        F  0.13694316  0.77463039  0.60024772    -0.19100
H352        H  0.09360402  0.82720265  0.65825410     0.18600
H353        H  0.16717902  0.94296779  0.55320092     0.18600
F354        F  0.12420600  0.99567085  0.61010813    -0.19100
C355        C  0.12896559  0.94043383  0.88910957    -0.20600
C356        C  0.10692236  0.90763485  0.85917261    -0.08600
C357        C  0.11287283  0.85140566  0.86192351     0.30200
C358        C  0.13770401  0.82885968  0.89506471    -0.20600
C359        C  0.15693619  0.86188972  0.92582692    -0.08600
C360        C  0.15377273  0.91799148  0.92194130     0.30300
F361        F  0.17414840  0.95127373  0.95022240    -0.19100
H362        H  0.12622101  0.98379776  0.88759417     0.18600
H363        H  0.13993520  0.78554806  0.89745228     0.18600
F364        F  0.09310920  0.81806537  0.83348916    -0.19100
C365        C  0.30915087  0.64869848  0.52434441    -0.20600
C366        C  0.35425696  0.65341818  0.00026908    -0.08600
C367        C  0.35961311  0.69856003  0.97595522     0.30200
C368        C  0.32022253  0.73832413  0.97583140    -0.20600
C369        C  0.27471512  0.73347220  0.99964782    -0.08600
C370        C  0.26934785  0.68801716  0.52379259     0.30300
F371        F  0.22491670  0.68079941  0.54592939    -0.19100
H372        H  0.30416650  0.61380817  0.54293222     0.18600
H373        H  0.32558732  0.77334635  0.95744800     0.18600
F374        F  0.40366341  0.70495529  0.95325844    -0.19100
C375        C  0.83278715  0.09754696  0.63689930    -0.20600
C376        C  0.88894249  0.10042237  0.63973145    -0.08600
C377        C  0.91729272  0.12648309  0.60952069     0.30200
C378        C  0.89045340  0.14674635  0.57681812    -0.20600
C379        C  0.83487647  0.14201285  0.57322351    -0.08600
C380        C  0.80584084  0.11830938  0.60391359     0.30300
F381        F  0.75197731  0.11298181  0.60113179    -0.19100
H382        H  0.80984720  0.07787256  0.65962524     0.18600
H383        H  0.91340830  0.16561287  0.55369624     0.18600
F384        F  0.97125503  0.13177056  0.61094681    -0.19100
C385        C  0.83794015  0.10523454  0.86124985    -0.20600
C386        C  0.89416961  0.10211230  0.86108902    -0.08600
C387        C  0.92266977  0.12212898  0.89409627     0.30200
C388        C  0.89555364  0.14270853  0.92666252    -0.20600
C389        C  0.83956635  0.14403124  0.92740777    -0.08600
C390        C  0.81078493  0.12613715  0.89407235     0.30300
F391        F  0.75655806  0.12647756  0.89395032    -0.19100
H392        H  0.81484955  0.09029927  0.83637658     0.18600
H393        H  0.91851860  0.15702329  0.95182132     0.18600
F394        F  0.97685065  0.12071735  0.89566321    -0.19100
C395        C  0.66571415  0.26200033  0.51991014    -0.20600
C396        C  0.71424067  0.26695902  0.99975901    -0.08600
C397        C  0.72593257  0.31537996  0.98037322     0.30200
C398        C  0.68936897  0.35791495  0.98109548    -0.20600
C399        C  0.64028719  0.35250098  0.00054215    -0.08600
C400        C  0.62883179  0.30409234  0.52010236     0.30300
F401        F  0.58242606  0.29781049  0.54010887    -0.19100
H402        H  0.65617313  0.22516273  0.53520967     0.18600
H403        H  0.69905929  0.39480400  0.96592014     0.18600
F404        F  0.77313454  0.32193378  0.96145693    -0.19100
loop_ 
_geom_bond_atom_site_label_1 
_geom_bond_atom_site_label_2 
_geom_bond_distance 
_geom_bond_site_symmetry_2 
_ccdc_geom_bond_type 
C1            C6   1.408   1_556  A
C1          C204   1.408       .  A
C1          C396   1.480       .  S
C2            C3   1.403       .  A
C2          C203   1.408       .  A
C2            H7   1.084       .  S
C3          C206   1.401       .  A
C3          C187   1.482       .  S
C4            C5   1.400       .  A
C4          C205   1.401   1_554  A
C4            H8   1.085       .  S
C5            C6   1.402       .  A
C5          C177   1.479       .  S
C6            H9   1.084       .  S
C10          C11   1.408       .  A
C10         C217   1.407       .  A
C10         C167   1.481       .  S
C11          C12   1.402       .  A
C11          H16   1.084       .  S
C12          C13   1.401       .  A
C12         C157   1.481       .  S
C13         C216   1.401       .  A
C13          H17   1.084       .  S
C14          C15   1.401       .  A
C14         C215   1.401   1_554  A
C14         C147   1.481       .  S
C15         C212   1.407   1_554  A
C15          H18   1.083       .  S
Zn19         O24   1.991       .  S
Zn19         O28   2.001       .  S
Zn19         O35   2.012       .  S
Zn19        O225   1.943       .  S
Zn20         O25   2.033       .  S
Zn20         O31   2.035       .  S
Zn20        O229   2.035       .  S
Zn20         O23   1.976       .  S
Zn21         O29   2.001       .  S
Zn21         O32   2.017       .  S
Zn21        O228   2.023       .  S
Zn21         O23   1.963       .  S
Zn22         O30   2.005       .  S
Zn22         O33   1.996       .  S
Zn22         O34   2.009       .  S
Zn22         O23   1.945       .  S
O23        Zn221   1.943       .  S
O24          C36   1.273       .  A
O25          C37   1.276       .  A
O26        Zn223   2.023       .  S
O26          C38   1.273       .  A
O27        Zn222   2.035   1_554  S
O27          C36   1.276       .  A
O28          C38   1.271       .  A
O29          C37   1.272       .  A
O30          C39   1.274       .  A
O31          C40   1.275       .  A
O32          C39   1.273       .  A
O33          C40   1.272       .  A
O34          C41   1.271       .  A
O35         C243   1.272       .  A
C36         C124   1.484       .  S
C37         C197   1.478       .  S
C38         C104   1.485       .  S
C39         C117   1.482       .  S
C40         C137   1.484       .  S
C41         C164   1.471       .  S
C41         O237   1.272       .  A
C42          C43   1.409       .  A
C42          C47   1.412       .  A
C42          C97   1.489       .  S
C43          C44   1.398       .  A
C43          H48   1.083       .  S
C44          C45   1.397       .  A
C44         C114   1.475       .  S
C45          C46   1.400       .  A
C45          H49   1.084       .  S
C46          C47   1.405       .  A
C46         C107   1.484       .  S
C47          H50   1.083       .  S
C51          C52   1.405       .  A
C51          C56   1.404       .  A
C51          C84   1.473       .  S
C52          C53   1.403       .  A
C52          H57   1.084       .  S
C53          C54   1.401       .  A
C53         C134   1.479       .  S
C54          C55   1.401       .  A
C54          H58   1.084       .  S
C55          C56   1.401       .  A
C55         C127   1.480       .  S
C56          H59   1.084       .  S
Zn60         O65   1.995   1_455  S
Zn60         O69   1.989   1_545  S
Zn60         O76   2.008       .  S
Zn60         O64   1.940   1_455  S
Zn61         O66   2.011   1_545  S
Zn61         O68   2.039       .  S
Zn61         O72   2.033       .  S
Zn61         O64   1.970       .  S
Zn62         O67   2.035       .  S
Zn62         O70   2.022   1_455  S
Zn62         O73   2.032       .  S
Zn62         O64   1.977   1_465  S
Zn63         O71   1.993   1_545  S
Zn63         O74   2.005   1_455  S
Zn63         O75   2.013       .  S
Zn63         O64   1.942   1_455  S
O65          C77   1.272       .  A
O66          C78   1.275       .  A
O67          C79   1.275       .  A
O68          C77   1.275       .  A
O69          C79   1.271       .  A
O70          C78   1.275       .  A
O71          C80   1.272       .  A
O72          C81   1.276       .  A
O73          C80   1.274       .  A
O74          C81   1.273       .  A
O75          C82   1.272       .  A
O76          C82   1.271       .  A
C77         C174   1.487       .  S
C78          C87   1.480       .  S
C79         C144   1.484       .  S
C80         C154   1.484       .  S
C81         C184   1.487       .  S
C82          C94   1.476       .  S
C83          C84   1.402       .  A
C83          C88   1.400       .  A
C83          H90   1.084       .  S
C84          C85   1.403       .  A
C85          C86   1.395       .  A
C85          F92   1.358       .  S
C86          C87   1.406       .  A
C86          H91   1.083       .  S
C87          C88   1.410       .  A
C88          F89   1.357       .  S
C93          C94   1.403       .  A
C93          C98   1.397       .  A
C93         H100   1.084       .  S
C94          C95   1.406       .  A
C95          C96   1.398       .  A
C95         F102   1.357       .  S
C96          C97   1.407       .  A
C96         H101   1.083       .  S
C97          C98   1.410       .  A
C98          F99   1.358       .  S
C103        C104   1.409       .  A
C103        C108   1.403       .  A
C103        H110   1.083       .  S
C104        C105   1.409       .  A
C105        C106   1.392       .  A
C105        F112   1.358       .  S
C106        C107   1.404       .  A
C106        H111   1.084       .  S
C107        C108   1.406       .  A
C108        F109   1.357       .  S
C113        C114   1.402       .  A
C113        C118   1.400       .  A
C113        H120   1.083       .  S
C114        C115   1.404       .  A
C115        C116   1.393       .  A
C115        F122   1.358       .  S
C116        C117   1.406       .  A
C116        H121   1.083       .  S
C117        C118   1.412       .  A
C118        F119   1.357       .  S
C123        C124   1.407       .  A
C123        C128   1.392       .  A
C123        H130   1.083       .  S
C124        C125   1.410       .  A
C125        C126   1.402       .  A
C125        F132   1.357       .  S
C126        C127   1.405       .  A
C126        H131   1.083       .  S
C127        C128   1.404       .  A
C128        F129   1.358       .  S
C133        C134   1.402       .  A
C133        C138   1.394       .  A
C133        H140   1.083       .  S
C134        C135   1.404       .  A
C135        C136   1.402       .  A
C135        F142   1.357       .  S
C136        C137   1.408       .  A
C136        H141   1.082       .  S
C137        C138   1.411       .  A
C138        F139   1.358       .  S
C143        C144   1.407       .  A
C143        C148   1.402       .  A
C143        H150   1.083       .  S
C144        C145   1.411       .  A
C145        C146   1.392       .  A
C145        F152   1.358       .  S
C146        C147   1.402       .  A
C146        H151   1.083       .  S
C147        C148   1.407       .  A
C148        F149   1.357       .  S
C153        C154   1.407       .  A
C153        C158   1.393       .  A
C153        H160   1.082       .  S
C154        C155   1.410       .  A
C155        C156   1.402       .  A
C155        F162   1.357       .  S
C156        C157   1.405       .  A
C156        H161   1.082       .  S
C157        C158   1.405       .  A
C158        F159   1.358       .  S
C163        C168   1.397       .  A
C163        C366   1.402       .  A
C163        H170   1.084       .  S
C164        C165   1.405       .  A
C164        C365   1.402       .  A
C165        C166   1.397       .  A
C165        F172   1.358       .  S
C166        C167   1.405       .  A
C166        H171   1.084       .  S
C167        C370   1.408       .  A
C168        C369   1.408   1_554  A
C168        F169   1.357       .  S
C173        C174   1.410       .  A
C173        C178   1.405       .  A
C173        H180   1.083       .  S
C174        C175   1.411       .  A
C175        C176   1.391       .  A
C175        F182   1.358       .  S
C176        C177   1.401       .  A
C176        H181   1.084       .  S
C177        C178   1.405       .  A
C178        F179   1.357       .  S
C183        C184   1.410       .  A
C183        C188   1.403       .  A
C183        H190   1.082       .  S
C184        C185   1.411       .  A
C185        C186   1.393       .  A
C185        F192   1.357       .  S
C186        C187   1.402       .  A
C186        H191   1.083       .  S
C187        C188   1.406       .  A
C188        F189   1.357       .  S
C193        C198   1.397       .  A
C193        C396   1.402   1_554  A
C193        H200   1.084       .  S
C194        C195   1.408       .  A
C194        C395   1.402       .  A
C194        C203   1.480       .  S
C195        C196   1.400       .  A
C195        F202   1.358       .  S
C196        C197   1.404       .  A
C196        H201   1.083       .  S
C197        C400   1.409       .  A
C198        C399   1.409       .  A
C198        F199   1.358       .  S
C203        C208   1.408       .  A
C204        C205   1.403       .  A
C204        H209   1.084       .  S
C205        C389   1.482       .  S
C206        C207   1.400       .  A
C206        H210   1.085       .  S
C207        C208   1.402       .  A
C207        C379   1.479       .  S
C208        H211   1.084       .  S
C212        C213   1.408       .  A
C212        C369   1.481       .  S
C213        C214   1.402       .  A
C213        H218   1.084       .  S
C214        C215   1.401       .  A
C214        C359   1.481       .  S
C215        H219   1.084       .  S
C216        C217   1.401       .  A
C216        C349   1.481       .  S
C217        H220   1.083       .  S
Zn221       O226   1.991       .  S
Zn221       O230   2.001       .  S
Zn221       O237   2.012       .  S
Zn222       O227   2.033       .  S
Zn222       O233   2.035       .  S
Zn222       O225   1.976   1_556  S
Zn223       O231   2.001       .  S
Zn223       O234   2.017   1_554  S
Zn223       O225   1.963       .  S
Zn224       O232   2.005       .  S
Zn224       O235   1.996       .  S
Zn224       O236   2.009       .  S
Zn224       O225   1.945   1_556  S
O226        C238   1.273       .  A
O227        C239   1.276       .  A
O228        C240   1.273       .  A
O229        C238   1.276       .  A
O230        C240   1.271       .  A
O231        C239   1.272   1_554  A
O232        C241   1.274       .  A
O233        C242   1.275       .  A
O234        C241   1.273       .  A
O235        C242   1.272       .  A
O236        C243   1.271   1_556  A
C238        C326   1.484       .  S
C239        C399   1.478   1_556  S
C240        C306   1.485       .  S
C241        C319   1.482       .  S
C242        C339   1.484       .  S
C243        C366   1.471       .  S
C244        C245   1.409       .  A
C244        C249   1.412       .  A
C244        C299   1.489       .  S
C245        C246   1.398       .  A
C245        H250   1.083       .  S
C246        C247   1.397       .  A
C246        C316   1.475       .  S
C247        C248   1.400       .  A
C247        H251   1.084       .  S
C248        C249   1.405       .  A
C248        C309   1.484       .  S
C249        H252   1.083       .  S
C253        C254   1.405       .  A
C253        C258   1.404       .  A
C253        C286   1.473       .  S
C254        C255   1.403       .  A
C254        H259   1.084       .  S
C255        C256   1.401       .  A
C255        C336   1.479       .  S
C256        C257   1.401       .  A
C256        H260   1.084       .  S
C257        C258   1.401       .  A
C257        C329   1.480       .  S
C258        H261   1.084       .  S
Zn262       O267   1.995   1_455  S
Zn262       O271   1.989   1_545  S
Zn262       O278   2.008       .  S
Zn262       O266   1.940   1_455  S
Zn263       O268   2.011   1_545  S
Zn263       O270   2.039       .  S
Zn263       O274   2.033       .  S
Zn263       O266   1.970       .  S
Zn264       O269   2.035       .  S
Zn264       O272   2.022   1_455  S
Zn264       O275   2.032       .  S
Zn264       O266   1.977   1_465  S
Zn265       O273   1.993   1_545  S
Zn265       O276   2.005   1_455  S
Zn265       O277   2.013       .  S
Zn265       O266   1.942   1_455  S
O267        C279   1.272       .  A
O268        C280   1.275       .  A
O269        C281   1.275       .  A
O270        C279   1.275       .  A
O271        C281   1.271       .  A
O272        C280   1.275       .  A
O273        C282   1.272       .  A
O274        C283   1.276       .  A
O275        C282   1.274       .  A
O276        C283   1.273       .  A
O277        C284   1.272       .  A
O278        C284   1.271       .  A
C279        C376   1.487       .  S
C280        C289   1.480       .  S
C281        C346   1.484       .  S
C282        C356   1.484       .  S
C283        C386   1.487       .  S
C284        C296   1.476       .  S
C285        C286   1.402       .  A
C285        C290   1.400       .  A
C285        H292   1.084       .  S
C286        C287   1.403       .  A
C287        C288   1.395       .  A
C287        F294   1.358       .  S
C288        C289   1.406       .  A
C288        H293   1.083       .  S
C289        C290   1.410       .  A
C290        F291   1.357       .  S
C295        C296   1.403       .  A
C295        C300   1.397       .  A
C295        H302   1.084       .  S
C296        C297   1.406       .  A
C297        C298   1.398       .  A
C297        F304   1.357       .  S
C298        C299   1.407       .  A
C298        H303   1.083       .  S
C299        C300   1.410       .  A
C300        F301   1.358       .  S
C305        C306   1.409       .  A
C305        C310   1.403       .  A
C305        H312   1.083       .  S
C306        C307   1.409       .  A
C307        C308   1.392       .  A
C307        F314   1.358       .  S
C308        C309   1.404       .  A
C308        H313   1.084       .  S
C309        C310   1.406       .  A
C310        F311   1.357       .  S
C315        C316   1.402       .  A
C315        C320   1.400       .  A
C315        H322   1.083       .  S
C316        C317   1.404       .  A
C317        C318   1.393       .  A
C317        F324   1.358       .  S
C318        C319   1.406       .  A
C318        H323   1.083       .  S
C319        C320   1.412       .  A
C320        F321   1.357       .  S
C325        C326   1.407       .  A
C325        C330   1.392       .  A
C325        H332   1.083       .  S
C326        C327   1.410       .  A
C327        C328   1.402       .  A
C327        F334   1.357       .  S
C328        C329   1.405       .  A
C328        H333   1.083       .  S
C329        C330   1.404       .  A
C330        F331   1.358       .  S
C335        C336   1.402       .  A
C335        C340   1.394       .  A
C335        H342   1.083       .  S
C336        C337   1.404       .  A
C337        C338   1.402       .  A
C337        F344   1.357       .  S
C338        C339   1.408       .  A
C338        H343   1.082       .  S
C339        C340   1.411       .  A
C340        F341   1.358       .  S
C345        C346   1.407       .  A
C345        C350   1.402       .  A
C345        H352   1.083       .  S
C346        C347   1.411       .  A
C347        C348   1.392       .  A
C347        F354   1.358       .  S
C348        C349   1.402       .  A
C348        H353   1.083       .  S
C349        C350   1.407       .  A
C350        F351   1.357       .  S
C355        C356   1.407       .  A
C355        C360   1.393       .  A
C355        H362   1.082       .  S
C356        C357   1.410       .  A
C357        C358   1.402       .  A
C357        F364   1.357       .  S
C358        C359   1.405       .  A
C358        H363   1.082       .  S
C359        C360   1.405       .  A
C360        F361   1.358       .  S
C365        C370   1.397       .  A
C365        H372   1.084       .  S
C366        C367   1.405   1_554  A
C367        C368   1.397       .  A
C367        F374   1.358       .  S
C368        C369   1.405       .  A
C368        H373   1.084       .  S
C370        F371   1.357       .  S
C375        C376   1.410       .  A
C375        C380   1.405       .  A
C375        H382   1.083       .  S
C376        C377   1.411       .  A
C377        C378   1.391       .  A
C377        F384   1.358       .  S
C378        C379   1.401       .  A
C378        H383   1.084       .  S
C379        C380   1.405       .  A
C380        F381   1.357       .  S
C385        C386   1.410       .  A
C385        C390   1.403       .  A
C385        H392   1.082       .  S
C386        C387   1.411       .  A
C387        C388   1.393       .  A
C387        F394   1.357       .  S
C388        C389   1.402       .  A
C388        H393   1.083       .  S
C389        C390   1.406       .  A
C390        F391   1.357       .  S
C395        C400   1.397       .  A
C395        H402   1.084       .  S
C396        C397   1.408       .  A
C397        C398   1.400       .  A
C397        F404   1.358       .  S
C398        C399   1.404   1_556  A
C398        H403   1.083       .  S
C400        F401   1.358       .  S
