geometry optimzed in LAMMPS
_audit_creation_date              2020-11-30 
_audit_creation_method            'lammps2cif' 
_symmetry_space_group_name_H-M    'P1' 
_symmetry_Int_Tables_number       1 
_symmetry_cell_setting            triclinic 
loop_ 
_symmetry_equiv_pos_as_xyz 
  x,y,z 
_cell_length_a                    30.69509338 
_cell_length_b                    30.862138997105248 
_cell_length_c                    34.541409455960185 
_cell_angle_alpha                 90.04979536431877 
_cell_angle_beta                  90.07655728100437 
_cell_angle_gamma                 90.09472465952476 
loop_ 
_atom_site_label 
_atom_site_type_symbol 
_atom_site_fract_x 
_atom_site_fract_y 
_atom_site_fract_z 
_atom_site_charge 
C1          C  0.86648976  0.36864955  0.03905040     0.30200
C2          C  0.86440234  0.36799955  0.45955687     0.30200
C3          C  0.82170003  0.37762515  0.02027101    -0.06000
C4          C  0.89435708  0.40340637  0.01893338    -0.06800
C5          C  0.88063994  0.32662014  0.01923449    -0.06700
C6          C  0.82069765  0.37745833  0.47971598    -0.06000
C7          C  0.89375199  0.40277310  0.47850464    -0.06800
C8          C  0.87944211  0.32639046  0.47915342    -0.06700
C9          C  0.78282724  0.39806663  0.46878560    -0.32100
N10         N  0.75979367  0.40843632  0.50093887     0.14400
C11         C  0.78460205  0.39883928  0.03226462    -0.32100
H12         H  0.77722392  0.40879297  0.06155648     0.16400
C13         C  0.92065549  0.43577718  0.46623257    -0.31100
N14         N  0.93799981  0.45544686  0.99782184     0.13100
C15         C  0.92088835  0.43720600  0.03006155    -0.31000
C16         C  0.89265129  0.28618524  0.46698880    -0.31300
N17         N  0.90165315  0.26185671  0.99870445     0.13700
H18         H  0.89544206  0.27532116  0.43728659     0.16300
C19         C  0.89481454  0.28639243  0.03081591    -0.31300
H20         H  0.90052341  0.27605262  0.06031455     0.16300
H21         H  0.92891051  0.44669355  0.05938555     0.16300
H22         H  0.77309284  0.40572650  0.43946711     0.16400
H23         H  0.92817931  0.44440112  0.43663676     0.16300
C24         C  0.86873690  0.36784891  0.20960638     0.30200
C25         C  0.87086643  0.36773880  0.28913283     0.30200
C26         C  0.88006381  0.32481061  0.22897057    -0.06000
C27         C  0.90138806  0.39957122  0.22854956    -0.06800
C28         C  0.82646509  0.38166478  0.22997409    -0.06700
C29         C  0.88094447  0.32466924  0.26910604    -0.06000
C30         C  0.90222691  0.39975475  0.26908578    -0.06800
C31         C  0.82735848  0.38125467  0.27036399    -0.06700
C32         C  0.89451053  0.28421511  0.28053138    -0.32100
N33         N  0.90304266  0.26030227  0.24834746     0.14400
C34         C  0.89376777  0.28469937  0.21669405    -0.32100
H35         H  0.89835615  0.27455658  0.18696844     0.16400
C36         C  0.92750610  0.43457303  0.28019787    -0.31100
N37         N  0.94288334  0.45436983  0.24797851     0.13100
C38         C  0.92659241  0.43398164  0.21633853    -0.31000
C39         C  0.79068285  0.40291776  0.28275931    -0.31300
N40         N  0.76752160  0.41570621  0.25134544     0.13700
H41         H  0.78190688  0.41019136  0.31238787     0.16300
C42         C  0.78964484  0.40398861  0.21908118    -0.31300
H43         H  0.77956685  0.41105547  0.18974701     0.16300
H44         H  0.93225815  0.44411893  0.18679904     0.16300
H45         H  0.89868456  0.27332687  0.31006884     0.16400
H46         H  0.93373547  0.44543628  0.30948704     0.16300
C47         C  0.35924921  0.14944604  0.03925378     0.30200
C48         C  0.36137404  0.14991806  0.45991178     0.30200
C49         C  0.36236260  0.19478508  0.02021337    -0.06000
C50         C  0.39857887  0.12644607  0.02053692    -0.06800
C51         C  0.32009192  0.12917217  0.01857931    -0.06700
C52         C  0.36325424  0.19505688  0.47940132    -0.06000
C53         C  0.39969853  0.12678160  0.48013323    -0.06800
C54         C  0.32124312  0.12956394  0.47858729    -0.06700
C55         C  0.38404442  0.23301368  0.46858848    -0.32100
N56         N  0.39450218  0.25592726  0.00064389     0.14400
C57         C  0.38317323  0.23239790  0.03205178    -0.32100
H58         H  0.39215942  0.24088583  0.06138290     0.16400
C59         C  0.43573206  0.10314607  0.46909866    -0.31100
N60         N  0.45550393  0.08754288  0.00133317     0.13100
C61         C  0.43387674  0.10241048  0.03287873    -0.31000
C62         C  0.28170101  0.11444628  0.46556043    -0.31300
N63         N  0.25694457  0.10375521  0.99665871     0.13700
H64         H  0.27105301  0.11313141  0.43570228     0.16300
C65         C  0.27988562  0.11334193  0.02925748    -0.31300
H66         H  0.26781527  0.10995294  0.05853532     0.16300
H67         H  0.44174877  0.09389407  0.06244394     0.16300
H68         H  0.39415989  0.24181299  0.43963521     0.16400
H69         H  0.44535387  0.09533190  0.43979778     0.16300
C70         C  0.36129171  0.14833571  0.28920844     0.30200
C71         C  0.36098153  0.14868292  0.20985594     0.30200
C72         C  0.38114969  0.18883684  0.26979736    -0.06000
C73         C  0.38780857  0.11195436  0.26972677    -0.06800
C74         C  0.31688173  0.14398129  0.26971523    -0.06700
C75         C  0.38123815  0.18886227  0.22940691    -0.06000
C76         C  0.38777440  0.11191108  0.22905059    -0.06800
C77         C  0.31656573  0.14471891  0.22967047    -0.06700
C78         C  0.40124223  0.22669619  0.21774915    -0.32100
N79         N  0.41166145  0.25030706  0.24965558     0.14400
C80         C  0.40073022  0.22689950  0.28156482    -0.32100
H81         H  0.40644131  0.23695918  0.31115681     0.16400
C82         C  0.42446354  0.08886259  0.21780690    -0.31100
N83         N  0.44473177  0.07339365  0.24978111     0.13100
C84         C  0.42426827  0.08928239  0.28129462    -0.31000
C85         C  0.27569821  0.13181798  0.21795488    -0.31300
N86         N  0.25129300  0.12299377  0.24983109     0.13700
H87         H  0.26546907  0.12650672  0.18833077     0.16300
C88         C  0.27678205  0.12919502  0.28152003    -0.31300
H89         H  0.26832046  0.11993751  0.31076397     0.16300
H90         H  0.43691909  0.08654321  0.31043246     0.16300
H91         H  0.40679673  0.23694206  0.18820559     0.16400
H92         H  0.43684248  0.08525298  0.18867117     0.16300
C93         C  0.64649287  0.86125112  0.46115634     0.30200
C94         C  0.64438918  0.86021880  0.04046413     0.30200
C95         C  0.68626373  0.88099350  0.48159850    -0.06000
C96         C  0.60919170  0.88758170  0.47998934    -0.06800
C97         C  0.64200167  0.81681702  0.48010956    -0.06700
C98         C  0.68552070  0.88033904  0.02192699    -0.06000
C99         C  0.60824470  0.88719190  0.02078153    -0.06800
C100        C  0.64021097  0.81621808  0.02016802    -0.06700
C101        C  0.72325579  0.90050582  0.03431047    -0.32100
N102        N  0.74703340  0.91211380  0.00272088     0.14400
C103        C  0.72386574  0.90173646  0.47054073    -0.32100
H104        H  0.73422740  0.90796149  0.44113471     0.16400
C105        C  0.58731380  0.92486021  0.03200530    -0.31100
N106        N  0.57404215  0.94648922  0.00019169     0.13100
C107        C  0.58839273  0.92524496  0.46851326    -0.31000
C108        C  0.62418288  0.77614656  0.03060991    -0.31300
N109        N  0.61723522  0.75229889  0.99804183     0.13700
H110        H  0.61529290  0.76618051  0.05959714     0.16300
C111        C  0.62867881  0.77683321  0.46707423    -0.31300
H112        H  0.62579189  0.76718672  0.43709408     0.16300
H113        H  0.58592617  0.93776602  0.43936216     0.16300
H114        H  0.73260397  0.90643173  0.06406278     0.16400
H115        H  0.58397410  0.93725328  0.06116324     0.16300
C116        C  0.64766669  0.86188186  0.21123152     0.30200
C117        C  0.64922179  0.86115015  0.29052317     0.30200
C118        C  0.69353424  0.86228589  0.22979645    -0.06000
C119        C  0.62662448  0.90137121  0.23134874    -0.06800
C120        C  0.62605917  0.82311424  0.23092084    -0.06700
C121        C  0.69449251  0.86183735  0.27061901    -0.06000
C122        C  0.62731488  0.90080048  0.27172974    -0.06800
C123        C  0.62669286  0.82286942  0.27087254    -0.06700
C124        C  0.73329503  0.88161574  0.28122788    -0.32100
N125        N  0.75656006  0.89159202  0.24916849     0.14400
C126        C  0.73149799  0.88246172  0.21798614    -0.32100
H127        H  0.73855104  0.89360792  0.18896369     0.16400
C128        C  0.60445490  0.93655049  0.28424290    -0.31100
N129        N  0.58947331  0.95840549  0.25287240     0.13100
C130        C  0.60381179  0.93793020  0.22048964    -0.31000
C131        C  0.60968186  0.78385490  0.28276351    -0.31300
N132        N  0.59852867  0.76042187  0.25095089     0.13700
H133        H  0.60681356  0.77281054  0.31239022     0.16300
C134        C  0.60935382  0.78387041  0.21908118    -0.31300
H135        H  0.60751459  0.77240101  0.18951748     0.16300
H136        H  0.59530050  0.94723297  0.19125815     0.16300
H137        H  0.74255822  0.89126151  0.31020211     0.16400
H138        H  0.59668254  0.94462898  0.31392861     0.16300
C139        C  0.15444354  0.65676704  0.46331812     0.30200
C140        C  0.15465815  0.65849048  0.04261762     0.30200
C141        C  0.13337445  0.69634130  0.48245578    -0.06000
C142        C  0.13131613  0.61848376  0.48318102    -0.06800
C143        C  0.19972658  0.65485204  0.48275823    -0.06700
C144        C  0.13265907  0.69717493  0.02258918    -0.06000
C145        C  0.13021818  0.62006187  0.02363979    -0.06800
C146        C  0.19959287  0.65635813  0.02335981    -0.06700
C147        C  0.11197159  0.73510602  0.03320945    -0.32100
N148        N  0.10237069  0.75792009  0.00064279     0.14400
C149        C  0.11443006  0.73396260  0.46954797    -0.32100
H150        H  0.11009679  0.74341655  0.43962979     0.16400
C151        C  0.09782855  0.59178926  0.03510312    -0.31100
N152        N  0.08171176  0.57147461  0.00333910     0.13100
C153        C  0.10297560  0.58636185  0.47168798    -0.31000
C154        C  0.23715284  0.63641669  0.03604202    -0.31300
N155        N  0.25981084  0.62221587  0.00505657     0.13700
H156        H  0.24578974  0.63016821  0.06587748     0.16300
C157        C  0.23686484  0.63206369  0.47273088    -0.31300
H158        H  0.24495242  0.62025013  0.44410278     0.16300
H159        H  0.09529819  0.57712515  0.44223959     0.16300
H160        H  0.10591086  0.74619351  0.06243808     0.16400
H161        H  0.08491408  0.58811561  0.06404464     0.16300
C162        C  0.15684934  0.65924970  0.29237153     0.30200
C163        C  0.15987324  0.65975750  0.21299571     0.30200
C164        C  0.19807167  0.63980331  0.27394049    -0.06000
C165        C  0.12087110  0.63310309  0.27143996    -0.06800
C166        C  0.15347974  0.70397946  0.27315286    -0.06700
C167        C  0.19968610  0.64083546  0.23375673    -0.06000
C168        C  0.12155074  0.63460918  0.23106861    -0.06800
C169        C  0.15486377  0.70449054  0.23256780    -0.06700
C170        C  0.23872116  0.62293147  0.22262802    -0.32100
N171        N  0.26070136  0.61050834  0.25484184     0.14400
C172        C  0.23586451  0.61989083  0.28632334    -0.32100
H173        H  0.24458712  0.61254338  0.31596311     0.16400
C174        C  0.08890667  0.60750886  0.21789184    -0.31100
N175        N  0.07103955  0.58723175  0.24881295     0.13100
C176        C  0.09043254  0.60214789  0.28145369    -0.31000
C177        C  0.13370420  0.74196591  0.22134309    -0.31300
N178        N  0.12141696  0.76448647  0.25315370     0.13700
H179        H  0.12546127  0.75113014  0.19206269     0.16300
C180        C  0.13269853  0.74132430  0.28484774    -0.31300
H181        H  0.12309728  0.74926162  0.31416089     0.16300
H182        H  0.08416066  0.58936261  0.31005598     0.16300
H183        H  0.25033689  0.61911127  0.19325031     0.16400
H184        H  0.08070735  0.60062961  0.18804153     0.16300
O185        O  0.06260026  0.03210052  0.46301900    -0.72800
O186        O  0.93965691  0.98752158  0.46264705    -0.73800
O187        O  0.97884782  0.07063482  0.46224925    -0.62400
O188        O  0.02410719  0.94834359  0.46387172    -0.70800
O189        O  0.02391151  0.94977190  0.02810272    -0.70300
O190        O  0.97726019  0.07068368  0.02651917    -0.61600
O191        O  0.94024346  0.98735684  0.02693563    -0.74100
O192        O  0.06157720  0.03418366  0.02723923    -0.72900
Cu193      Cu  0.00134218  0.00955358  0.46062554     1.04600
Cu194      Cu  0.00080466  0.01048755  0.02937925     1.04300
C195        C  0.08111700  0.04095599  0.99518472     0.93400
C196        C  0.92049073  0.98075410  0.99492165     0.92600
C197        C  0.97076557  0.08978980  0.99427720     0.84700
C198        C  0.03096693  0.92975318  0.99637167     0.91000
O199        O  0.97734843  0.06918505  0.27826844    -0.72800
O200        O  0.03041939  0.95105226  0.28290310    -0.73800
O201        O  0.06294626  0.03653150  0.27985622    -0.62400
O202        O  0.94354220  0.98367572  0.28113867    -0.70800
O203        O  0.94393539  0.98021269  0.21698971    -0.70300
O204        O  0.06309739  0.03371851  0.21570507    -0.61600
O205        O  0.03029790  0.94787122  0.21868768    -0.74100
O206        O  0.97650007  0.06637379  0.21405255    -0.72900
Cu207      Cu  0.00344982  0.01015591  0.28275540     1.04600
Cu208      Cu  0.00342251  0.00692402  0.21408793     1.04300
C209        C  0.96883243  0.08659218  0.24561182     0.93400
C210        C  0.03940116  0.93110184  0.25152184     0.92600
C211        C  0.08198381  0.04333287  0.24756414     0.84700
C212        C  0.92476219  0.97376777  0.24928808     0.91000
O213        O  0.47723725  0.44491955  0.47022323    -0.72800
O214        O  0.52976849  0.56415361  0.46848705    -0.73800
O215        O  0.56379849  0.47950781  0.46714814    -0.62400
O216        O  0.44411831  0.53070906  0.47158969    -0.70800
O217        O  0.44584446  0.52940445  0.03588280    -0.70300
O218        O  0.56619030  0.47941977  0.03133734    -0.61600
O219        O  0.53207645  0.56394851  0.03269153    -0.74100
O220        O  0.48092553  0.44380517  0.03444828    -0.72900
Cu221      Cu  0.50352135  0.50465361  0.46713575     1.04600
Cu222      Cu  0.50625992  0.50405325  0.03584799     1.04300
C223        C  0.47067229  0.42562529  0.00246280     0.93400
C224        C  0.53995448  0.58254864  0.00038655     0.92600
C225        C  0.58440185  0.47261228  0.99866747     0.84700
C226        C  0.42648072  0.53899860  0.00427029     0.91000
O227        O  0.49084425  0.44222289  0.21562564    -0.72800
O228        O  0.53059325  0.56612611  0.21943887    -0.73800
O229        O  0.57305829  0.48462753  0.21773866    -0.62400
O230        O  0.44815978  0.52416531  0.21787593    -0.70800
O231        O  0.44954116  0.52540283  0.28214417    -0.70300
O232        O  0.57092178  0.48020731  0.28185330    -0.61600
O233        O  0.53310823  0.56342585  0.28358403    -0.74100
O234        O  0.48731987  0.44187949  0.27981071    -0.72900
Cu235      Cu  0.51067111  0.50433250  0.21534408     1.04600
Cu236      Cu  0.51019068  0.50258194  0.28403573     1.04300
C237        C  0.48240832  0.42264918  0.24730490     0.93400
C238        C  0.53882100  0.58410175  0.25198862     0.92600
C239        C  0.59136141  0.47561796  0.25000143     0.84700
C240        C  0.42955890  0.53184431  0.25026309     0.91000
C241        C  0.31002365  0.55424346  0.23029769    -0.09000
C242        C  0.30267140  0.58984194  0.25484717     0.07200
C243        C  0.33727207  0.60548605  0.27785140    -0.02800
C244        C  0.37796637  0.58553495  0.27617182    -0.07200
C245        C  0.38542695  0.55036086  0.25140888     0.06300
C246        C  0.35097487  0.53434076  0.22853391    -0.02200
Br247      Br  0.35743896  0.48391252  0.19653075    -0.01900
H248        H  0.28360105  0.54171776  0.21271881     0.10200
H249        H  0.40440586  0.59840847  0.29358017     0.08200
Br250      Br  0.33260429  0.65605795  0.30958884    -0.02400
C251        C  0.04397711  0.85491392  0.22943020    -0.09000
C252        C  0.06025564  0.88819455  0.25303912     0.07200
C253        C  0.09626754  0.87989058  0.27729213    -0.02800
C254        C  0.11539367  0.83879406  0.27736005    -0.07200
C255        C  0.09939087  0.80555470  0.25348982     0.06300
C256        C  0.06281610  0.81370100  0.22978018    -0.02200
Br257      Br  0.03507477  0.76934135  0.19952494    -0.01900
H258        H  0.01587572  0.86078871  0.21115959     0.10200
H259        H  0.14365697  0.83294440  0.29540548     0.08200
Br260      Br  0.12275711  0.92419445  0.30857555    -0.02400
C261        C  0.11617150  0.65480295  0.35669396    -0.09000
C262        C  0.15549911  0.66147295  0.33666902     0.07200
C263        C  0.19098986  0.67724518  0.35858766    -0.02800
C264        C  0.19043721  0.67410397  0.39892786    -0.07200
C265        C  0.15330870  0.65941111  0.41899149     0.06300
C266        C  0.11437546  0.65500942  0.39715834    -0.02200
Br267      Br  0.05682406  0.65619826  0.41926627    -0.01900
H268        H  0.08577219  0.65289711  0.34109629     0.10200
H269        H  0.21837838  0.68633137  0.41457975     0.08200
Br270      Br  0.23717861  0.71094194  0.33635542    -0.02400
C271        C  0.15607914  0.61997643  0.10751598    -0.09000
C272        C  0.15835694  0.65917500  0.08676084     0.07200
C273        C  0.17340337  0.69601817  0.10727603    -0.02800
C274        C  0.17422399  0.69560068  0.14773468    -0.07200
C275        C  0.16339814  0.65813691  0.16881690     0.06300
C276        C  0.16006314  0.61888056  0.14778203    -0.02200
Br277      Br  0.16616892  0.56239929  0.17084669    -0.01900
H278        H  0.15411135  0.58939173  0.09240321     0.10200
H279        H  0.18603121  0.72417370  0.16248770     0.08200
Br280      Br  0.19981155  0.74539616  0.08268973    -0.02400
C281        C  0.33459817  0.61652261  0.48196678    -0.09000
C282        C  0.30121367  0.60060819  0.00569469     0.07200
C283        C  0.30935584  0.56432847  0.02952456    -0.02800
C284        C  0.35061679  0.54489040  0.02926112    -0.07200
C285        C  0.38380942  0.56073730  0.00517119     0.06300
C286        C  0.37563925  0.59720805  0.48168850    -0.02200
Br287      Br  0.42013896  0.62402064  0.45083249    -0.01900
H288        H  0.32878971  0.64475978  0.46410572     0.10200
H289        H  0.35647858  0.51668246  0.04716963     0.08200
Br290      Br  0.26478279  0.53811074  0.06064621    -0.02400
C291        C  0.08412605  0.87471773  0.47425261    -0.09000
C292        C  0.04812656  0.88509446  0.99734226     0.07200
C293        C  0.03047844  0.85313217  0.02198277    -0.02800
C294        C  0.04850532  0.81145250  0.02258473    -0.07200
C295        C  0.08450417  0.80102147  0.99937877     0.06300
C296        C  0.10293644  0.83349790  0.47569604    -0.02200
Br297      Br  0.15641054  0.82516520  0.44790196    -0.01900
H298        H  0.09878389  0.89936662  0.45610345     0.10200
H299        H  0.03422911  0.78691883  0.04105334     0.08200
Br300      Br  0.98075486  0.86408789  0.05417953    -0.02400
C301        C  0.60014249  0.68699859  0.27819804    -0.09000
C302        C  0.58270822  0.71648524  0.25137560     0.07200
C303        C  0.54997621  0.70217189  0.22560575    -0.02800
C304        C  0.53663063  0.65885951  0.22614086    -0.07200
C305        C  0.55428430  0.62938661  0.25277470     0.06300
C306        C  0.58611452  0.64390483  0.27929727    -0.02200
Br307      Br  0.61362000  0.60615963  0.31613010    -0.01900
H308        H  0.62544007  0.69739166  0.29801937     0.10200
H309        H  0.51144183  0.64837213  0.20620241     0.08200
Br310      Br  0.51960372  0.74056442  0.19125983    -0.02400
C311        C  0.80740417  0.94637763  0.27485953    -0.09000
C312        C  0.79845333  0.91277685  0.24853100     0.07200
C313        C  0.83144906  0.89966793  0.22258234    -0.02800
C314        C  0.87193159  0.92050356  0.22299300    -0.07200
C315        C  0.88096520  0.95379001  0.24952047     0.06300
C316        C  0.84815998  0.96681490  0.27562051    -0.02200
Br317      Br  0.85607741  0.01384633  0.31140004    -0.01900
H318        H  0.78234472  0.95714339  0.29466588     0.10200
H319        H  0.89700376  0.90971938  0.20315297     0.08200
Br320      Br  0.82476090  0.85125353  0.18811720    -0.02400
C321        C  0.60868464  0.86470181  0.39587013    -0.09000
C322        C  0.64741194  0.85860949  0.41697040     0.07200
C323        C  0.68412996  0.84336648  0.39629258    -0.02800
C324        C  0.68429511  0.84471446  0.35584207    -0.07200
C325        C  0.64748611  0.85815310  0.33471936     0.06300
C326        C  0.60805456  0.86320829  0.35547859    -0.02200
Br327      Br  0.55136090  0.86295219  0.33157373    -0.01900
H328        H  0.57794961  0.86835641  0.41073562     0.10200
H329        H  0.71268326  0.83242568  0.34106949     0.08200
Br330      Br  0.73284538  0.81487444  0.42038472    -0.02400
C331        C  0.68048388  0.84239128  0.14589280    -0.09000
C332        C  0.64502721  0.85905580  0.16700162     0.07200
C333        C  0.60568016  0.86578377  0.14638786    -0.02800
C334        C  0.60590744  0.86621593  0.10586439    -0.07200
C335        C  0.64389518  0.85683162  0.08470075     0.06300
C336        C  0.67944338  0.83950549  0.10552393    -0.02200
Br337      Br  0.72436467  0.80574920  0.08149762    -0.01900
H338        H  0.70835220  0.82892925  0.16074496     0.10200
H339        H  0.57531571  0.87127577  0.09107860     0.08200
Br340      Br  0.54942009  0.86838640  0.17076732    -0.02400
C341        C  0.54740350  0.65598608  0.47180469    -0.09000
C342        C  0.56088037  0.62571160  0.99964105     0.07200
C343        C  0.59429808  0.63723641  0.02578214    -0.02800
C344        C  0.61251159  0.67877459  0.02443005    -0.07200
C345        C  0.59848162  0.70945008  0.99715936     0.06300
C346        C  0.56544899  0.69762141  0.47048561    -0.02200
Br347      Br  0.54058060  0.73705916  0.43359736    -0.01900
H348        H  0.52181119  0.64755605  0.45151524     0.10200
H349        H  0.63824697  0.68714980  0.04458014     0.08200
Br350      Br  0.61865627  0.59689441  0.06212831    -0.02400
C351        C  0.86587176  0.93159338  0.02284770    -0.09000
C352        C  0.87558612  0.96406114  0.99596359     0.06800
C353        C  0.84226615  0.98003761  0.47180135    -0.02800
C354        C  0.79994932  0.96346742  0.47529450    -0.07200
C355        C  0.79016228  0.93061922  0.00218460     0.06300
C356        C  0.82404179  0.91430858  0.02572089    -0.02200
Br357      Br  0.81760155  0.86575655  0.05959980    -0.01900
H358        H  0.89145878  0.91860215  0.04108356     0.10200
H359        H  0.77444924  0.97623152  0.45687865     0.08200
Br360      Br  0.85204575  0.02563148  0.43502796    -0.02400
C361        C  0.51474098  0.97702376  0.27093384    -0.09000
C362        C  0.55424744  0.98901826  0.25360327     0.07200
C363        C  0.55754303  0.02961442  0.23531940    -0.02800
C364        C  0.52119777  0.05712397  0.23371363    -0.07200
C365        C  0.48161348  0.04484159  0.25083709     0.06300
C366        C  0.47866395  0.00450622  0.26974465    -0.02200
Br367      Br  0.42524107  0.98449892  0.29242444    -0.01900
H368        H  0.51172584  0.94560087  0.28459805     0.10200
H369        H  0.52393136  0.08840164  0.21974146     0.08200
Br370      Br  0.61176204  0.04925580  0.21432059    -0.02400
C371        C  0.46493265  0.30312926  0.22472262    -0.09000
C372        C  0.42966784  0.29348270  0.24921049     0.07200
C373        C  0.41162761  0.32710202  0.27180331    -0.02800
C374        C  0.42983702  0.36849887  0.27088754    -0.07200
C375        C  0.46517648  0.37803402  0.24682390     0.06300
C376        C  0.48266036  0.34504062  0.22324981    -0.02200
Br377      Br  0.53202472  0.35479767  0.19033190    -0.01900
H378        H  0.47895612  0.27779836  0.20698791     0.10200
H379        H  0.41540576  0.39388669  0.28835774     0.08200
Br380      Br  0.35965396  0.32054493  0.30161053    -0.02400
C381        C  0.19837546  0.07272544  0.22085912    -0.09000
C382        C  0.20860687  0.10347922  0.24950715     0.07200
C383        C  0.17667774  0.11414012  0.27735736    -0.02800
C384        C  0.13601361  0.09372529  0.27629007    -0.07200
C385        C  0.12576901  0.06327172  0.24745271     0.06300
C386        C  0.15750804  0.05278644  0.21948242    -0.02200
Br387      Br  0.14842210  0.00972622  0.18008848    -0.01900
H388        H  0.22266634  0.06346756  0.19973723     0.10200
H389        H  0.11179423  0.10254397  0.29768166     0.08200
Br390      Br  0.18486082  0.15828943  0.31591835    -0.02400
C391        C  0.53078660  0.06016260  0.00345526    -0.09000
C392        C  0.48580063  0.05220044  0.00155086     0.07200
C393        C  0.47065891  0.00917852  0.49933382    -0.02800
C394        C  0.50025230  0.97495342  0.49844328    -0.07200
C395        C  0.54508530  0.98276983  0.00015603     0.06300
C396        C  0.56049840  0.02558768  0.00292708    -0.02200
Br397      Br  0.62162814  0.03749415  0.00596122    -0.01900
H398        H  0.54261986  0.09316688  0.00531533     0.10200
H399        H  0.48839408  0.94192737  0.49675699     0.08200
Br400      Br  0.40986709  0.99541137  0.49817635    -0.02400
C401        C  0.36624981  0.10988798  0.35425930    -0.09000
C402        C  0.35831869  0.14815150  0.33341008     0.07200
C403        C  0.34111232  0.18348933  0.35437797    -0.02800
C404        C  0.34371926  0.18408133  0.39479020    -0.07200
C405        C  0.35937756  0.14815806  0.41565597     0.06300
C406        C  0.36519256  0.10913999  0.39465274    -0.02200
Br407      Br  0.36468767  0.05263173  0.41778589    -0.01900
H408        H  0.37011204  0.07940589  0.33927959     0.10200
H409        H  0.33041418  0.21175612  0.40986199     0.08200
Br410      Br  0.30632923  0.22764995  0.33064397    -0.02400
C411        C  0.34169305  0.18432852  0.10435613    -0.09000
C412        C  0.35556761  0.14768445  0.08345667     0.07200
C413        C  0.36074117  0.10873459  0.10451820    -0.02800
C414        C  0.36318836  0.10988203  0.14492018    -0.07200
C415        C  0.35724611  0.14867051  0.16569114     0.06300
C416        C  0.34088214  0.18461537  0.14483506    -0.02200
Br417      Br  0.31166562  0.23270147  0.16890595    -0.01900
H418        H  0.32905596  0.21233070  0.08935526     0.10200
H419        H  0.36722092  0.07953746  0.16006836     0.08200
Br420      Br  0.35871088  0.05227937  0.08108153    -0.02400
C421        C  0.47279513  0.34730986  0.01980847    -0.09000
C422        C  0.45068708  0.38213622  0.00258241     0.07200
C423        C  0.40984682  0.37483305  0.48517158    -0.02800
C424        C  0.39228577  0.33298069  0.48422878    -0.07200
C425        C  0.41443431  0.29807001  0.00109348     0.06300
C426        C  0.45499718  0.30542021  0.01909537    -0.02200
Br427      Br  0.48804483  0.25887438  0.04112426    -0.01900
H428        H  0.50430361  0.35257252  0.03319729     0.10200
H429        H  0.36066752  0.32766707  0.47109485     0.08200
Br430      Br  0.37542331  0.42155316  0.46499859    -0.02400
C431        C  0.18159259  0.10707797  0.52004827    -0.09000
C432        C  0.21272844  0.08830701  0.99550540     0.07200
C433        C  0.19991411  0.05441106  0.97046321    -0.02800
C434        C  0.15667253  0.04016096  0.97027310    -0.07200
C435        C  0.12578145  0.05846921  0.99523647     0.06300
C436        C  0.13841368  0.09255150  0.52007373    -0.02200
Br437      Br  0.09759327  0.12222491  0.55276827    -0.01900
H438        H  0.19085382  0.13358090  0.53892423     0.10200
H439        H  0.14742210  0.01365911  0.95134958     0.08200
Br440      Br  0.24040210  0.02375230  0.93828364    -0.02400
C441        C  0.01635101  0.47985190  0.26279853    -0.09000
C442        C  0.97487920  0.48819475  0.24759324     0.07200
C443        C  0.96574312  0.52915896  0.23175424    -0.02800
C444        C  0.99803338  0.56127529  0.23154691    -0.07200
C445        C  0.03935390  0.55309394  0.24727812     0.06300
C446        C  0.04863311  0.51179488  0.26252792    -0.02200
Br447      Br  0.10546200  0.49685503  0.28139386    -0.01900
H448        H  0.02365859  0.44809321  0.27442061     0.10200
H449        H  0.99068636  0.59305352  0.22000835     0.08200
Br450      Br  0.90893456  0.54313312  0.21248871    -0.02400
C451        C  0.90160073  0.18638801  0.22198541    -0.09000
C452        C  0.92003042  0.21690493  0.24743362     0.07200
C453        C  0.95547758  0.20440126  0.27094117    -0.02800
C454        C  0.97035621  0.16171432  0.26993123    -0.07200
C455        C  0.95159021  0.13110596  0.24492992     0.06300
C456        C  0.91719351  0.14380545  0.22039356    -0.02200
Br457      Br  0.88872723  0.10395967  0.18592757    -0.01900
H458        H  0.87453889  0.19566484  0.20365201     0.10200
H459        H  0.99759399  0.15259708  0.28817338     0.08200
Br460      Br  0.98763581  0.24455018  0.30240130    -0.02400
C461        C  0.69297583  0.41282047  0.27577119    -0.09000
C462        C  0.72416032  0.43298835  0.25221909     0.07200
C463        C  0.71149938  0.46783107  0.22837811    -0.02800
C464        C  0.66786673  0.48082265  0.22748621    -0.07200
C465        C  0.63665149  0.46021190  0.25074686     0.06300
C466        C  0.64955440  0.42604905  0.27524611    -0.02200
Br467      Br  0.60892072  0.39408867  0.30646476    -0.01900
H468        H  0.70229555  0.38566396  0.29379783     0.10200
H469        H  0.65846092  0.50779291  0.20924628     0.08200
Br470      Br  0.75278327  0.50063568  0.19873301    -0.02400
C471        C  0.96942702  0.52534069  0.51664556    -0.09000
C472        C  0.97367255  0.48543300  0.99774157     0.07200
C473        C  0.01390123  0.47422675  0.98087365    -0.02800
C474        C  0.04903146  0.50289043  0.98316172    -0.07200
C475        C  0.04496380  0.54272989  0.00222170     0.06300
C476        C  0.00448045  0.55431388  0.51852071    -0.02200
Br477      Br  0.99424004  0.61033762  0.54082672    -0.01900
H478        H  0.93848230  0.53412544  0.52944811     0.10200
H479        H  0.07998187  0.49390901  0.97047990     0.08200
Br480      Br  0.02348560  0.41912618  0.95659031    -0.02400
C481        C  0.90600228  0.36959841  0.39647668    -0.09000
C482        C  0.86564364  0.36485711  0.41537068     0.07200
C483        C  0.83055114  0.34907282  0.39272579    -0.02800
C484        C  0.83302490  0.35098718  0.35236561    -0.07200
C485        C  0.87110828  0.36485663  0.33335349     0.06300
C486        C  0.90935386  0.36797703  0.35610883    -0.02200
Br487      Br  0.96717772  0.36221777  0.33547793    -0.01900
H488        H  0.93563964  0.37237132  0.41328908     0.10200
H489        H  0.80552936  0.33930306  0.33570417     0.08200
Br490      Br  0.78258219  0.31625808  0.41334239    -0.02400
C491        C  0.90706620  0.37016290  0.14478016    -0.09000
C492        C  0.86793238  0.36524052  0.16543080     0.07200
C493        C  0.83125065  0.35034289  0.14429752    -0.02800
C494        C  0.83116401  0.35294142  0.10390944    -0.07200
C495        C  0.86840687  0.36600475  0.08325185     0.06300
C496        C  0.90796599  0.36859341  0.10431374    -0.02200
Br497      Br  0.96450189  0.36286498  0.08093271    -0.01900
H498        H  0.93765443  0.37282812  0.16019319     0.10200
H499        H  0.80252568  0.34176881  0.08859484     0.08200
Br500      Br  0.78361893  0.31882279  0.16712135    -0.02400
C501        C  0.91921596  0.14401329  0.02023505    -0.09000
C502        C  0.95307484  0.13407556  0.99444468     0.07200
C503        C  0.96931640  0.16663016  0.46976018    -0.02800
C504        C  0.95208885  0.20842726  0.47177372    -0.07200
C505        C  0.91842435  0.21848353  0.99772718     0.06300
C506        C  0.90135518  0.18560176  0.02162345    -0.02200
Br507      Br  0.85143213  0.19447125  0.05406261    -0.01900
H508        H  0.90582667  0.11896822  0.03872123     0.10200
H509        H  0.96539920  0.23349411  0.45330363     0.08200
Br510      Br  0.01645626  0.15672184  0.43437528    -0.02400
C511        C  0.70348646  0.45556263  0.47270486    -0.09000
C512        C  0.71619700  0.42567899  0.00126803     0.07200
C513        C  0.68473640  0.41092913  0.02809846    -0.02800
C514        C  0.64235370  0.42704743  0.02664439    -0.07200
C515        C  0.62960870  0.45652940  0.99800395     0.06300
C516        C  0.66058958  0.47073217  0.47060597    -0.02200
Br517      Br  0.64707380  0.51196897  0.43072940    -0.01900
H518        H  0.72707936  0.46717003  0.45186753     0.10200
H519        H  0.61870396  0.41537210  0.04745874     0.08200
Br520      Br  0.69541811  0.36567839  0.06504919    -0.02400
C521        C  0.86649525  0.36862695  0.53905013     0.30200
C522        C  0.86440336  0.36800377  0.95955646     0.30200
C523        C  0.82171107  0.37763933  0.52027436    -0.06000
C524        C  0.89438646  0.40336750  0.51893784    -0.06800
C525        C  0.88061388  0.32659170  0.51922662    -0.06700
C526        C  0.82069083  0.37743554  0.97971195    -0.06000
C527        C  0.89372751  0.40280235  0.97849960    -0.06800
C528        C  0.87947223  0.32641000  0.97916128    -0.06700
C529        C  0.78281899  0.39803675  0.96877505    -0.32100
N530        N  0.75977828  0.40840596  0.00092358     0.14400
C531        C  0.78461882  0.39885672  0.53227610    -0.32100
H532        H  0.77724501  0.40880150  0.56157120     0.16400
C533        C  0.92062374  0.43581127  0.96622451    -0.31100
N534        N  0.93804459  0.45539791  0.49783107     0.13100
C535        C  0.92093099  0.43715557  0.53006931    -0.31000
C536        C  0.89269135  0.28620486  0.96700477    -0.31300
N537        N  0.90161316  0.26182904  0.49868358     0.13700
H538        H  0.89547946  0.27533197  0.93730493     0.16300
C539        C  0.89478301  0.28635958  0.53079972    -0.31300
H540        H  0.90050375  0.27601669  0.56029566     0.16300
H541        H  0.92895318  0.44663978  0.55939415     0.16300
H542        H  0.77308895  0.40569288  0.93945464     0.16400
H543        H  0.92815987  0.44442168  0.93662803     0.16300
C544        C  0.86872307  0.36781828  0.70960268     0.30200
C545        C  0.87084819  0.36770297  0.78912905     0.30200
C546        C  0.88007628  0.32478681  0.72896392    -0.06000
C547        C  0.90135137  0.39956135  0.72854921    -0.06800
C548        C  0.82644024  0.38160132  0.72996833    -0.06700
C549        C  0.88095552  0.32464101  0.76909931    -0.06000
C550        C  0.90218595  0.39974210  0.76908493    -0.06800
C551        C  0.82733092  0.38118952  0.77035927    -0.06700
C552        C  0.89451250  0.28418175  0.78051960    -0.32100
N553        N  0.90304154  0.26027260  0.74833217     0.14400
C554        C  0.89377162  0.28467583  0.71668215    -0.32100
H555        H  0.89835095  0.27453451  0.68695496     0.16400
C556        C  0.92745821  0.43456220  0.78020217    -0.31100
N557        N  0.94283822  0.45436361  0.74798625     0.13100
C558        C  0.92655624  0.43397376  0.71634250    -0.31000
C559        C  0.79066387  0.40286979  0.78275098    -0.31300
N560        N  0.76750861  0.41566502  0.75133573     0.13700
H561        H  0.78189234  0.41015354  0.81237863     0.16300
C562        C  0.78963111  0.40394142  0.71907369    -0.31300
H563        H  0.77956190  0.41101666  0.68973890     0.16300
H564        H  0.93223531  0.44410489  0.68680331     0.16300
H565        H  0.89867556  0.27328509  0.81005577     0.16400
H566        H  0.93368845  0.44541871  0.80949314     0.16300
C567        C  0.35927016  0.14947351  0.53925666     0.30200
C568        C  0.36136198  0.14989300  0.95990903     0.30200
C569        C  0.36238111  0.19481218  0.52021610    -0.06000
C570        C  0.39859794  0.12647525  0.52053743    -0.06800
C571        C  0.32011205  0.12919752  0.51858622    -0.06700
C572        C  0.36324136  0.19503117  0.97939985    -0.06000
C573        C  0.39968281  0.12675310  0.98013279    -0.06800
C574        C  0.32122834  0.12954063  0.97858028    -0.06700
C575        C  0.38401750  0.23299685  0.96858928    -0.32100
N576        N  0.39454398  0.25593972  0.50064107     0.14400
C577        C  0.38321112  0.23241617  0.53205086    -0.32100
H578        H  0.39220579  0.24090129  0.56138068     0.16400
C579        C  0.43571768  0.10311836  0.96909968    -0.31100
N580        N  0.45551779  0.08756866  0.50133147     0.13100
C581        C  0.43389421  0.10243822  0.53287786    -0.31000
C582        C  0.28168343  0.11443795  0.96554763    -0.31300
N583        N  0.25697032  0.10375742  0.49667551     0.13700
H584        H  0.27103867  0.11313118  0.93568823     0.16300
C585        C  0.27991339  0.11335422  0.52927047    -0.31300
H586        H  0.26785017  0.10996056  0.55855026     0.16300
H587        H  0.44176574  0.09391947  0.56244264     0.16300
H588        H  0.39413480  0.24179969  0.93963738     0.16400
H589        H  0.44534218  0.09530637  0.93979901     0.16300
C590        C  0.36128534  0.14831551  0.78920995     0.30200
C591        C  0.36098566  0.14868292  0.70985848     0.30200
C592        C  0.38114619  0.18882096  0.76980907    -0.06000
C593        C  0.38780499  0.11193811  0.76972462    -0.06800
C594        C  0.31687764  0.14396596  0.76971132    -0.06700
C595        C  0.38123864  0.18885699  0.72941921    -0.06000
C596        C  0.38777670  0.11190638  0.72904880    -0.06800
C597        C  0.31656721  0.14471391  0.72966699    -0.06700
C598        C  0.40124559  0.22669226  0.71777084    -0.32100
N599        N  0.41166470  0.25029395  0.74968272     0.14400
C600        C  0.40072996  0.22687810  0.78158617    -0.32100
H601        H  0.40644358  0.23692638  0.81118080     0.16400
C602        C  0.42446289  0.08885420  0.71780358    -0.31100
N603        N  0.44472347  0.07337145  0.74977626     0.13100
C604        C  0.42425771  0.08925341  0.78129171    -0.31000
C605        C  0.27569895  0.13182437  0.71794406    -0.31300
N606        N  0.25128797  0.12299506  0.74981569     0.13700
H607        H  0.26547297  0.12652335  0.68831759     0.16300
C608        C  0.27677344  0.12918432  0.78150890    -0.31300
H609        H  0.26830605  0.11992138  0.81075010     0.16300
H610        H  0.43690309  0.08650100  0.81043037     0.16300
H611        H  0.40680401  0.23694444  0.68822961     0.16400
H612        H  0.43684530  0.08525080  0.68866842     0.16300
C613        C  0.64649564  0.86123782  0.96115905     0.30200
C614        C  0.64439809  0.86023149  0.54046144     0.30200
C615        C  0.68626120  0.88098379  0.98160606    -0.06000
C616        C  0.60919073  0.88756787  0.97998728    -0.06800
C617        C  0.64200408  0.81680320  0.98011239    -0.06700
C618        C  0.68552868  0.88035021  0.52191932    -0.06000
C619        C  0.60825060  0.88720398  0.52078270    -0.06800
C620        C  0.64021509  0.81623154  0.52016561    -0.06700
C621        C  0.72327016  0.90051052  0.53429734    -0.32100
N622        N  0.74704822  0.91211026  0.50270499     0.14400
C623        C  0.72385798  0.90173856  0.97055345    -0.32100
H624        H  0.73422177  0.90797057  0.94114920     0.16400
C625        C  0.58729800  0.92485820  0.53201072    -0.31100
N626        N  0.57401124  0.94648052  0.50019821     0.13100
C627        C  0.58841204  0.92524176  0.96850901    -0.31000
C628        C  0.62417419  0.77616578  0.53060837    -0.31300
N629        N  0.61721431  0.75232158  0.49804066     0.13700
H630        H  0.61528425  0.76620202  0.55959628     0.16300
C631        C  0.62869761  0.77681384  0.96707631    -0.31300
H632        H  0.62581962  0.76716543  0.93709595     0.16300
H633        H  0.58595024  0.93775942  0.93935641     0.16300
H634        H  0.73262051  0.90643931  0.56404852     0.16400
H635        H  0.58395677  0.93724932  0.56116917     0.16300
C636        C  0.64767416  0.86186271  0.71122866     0.30200
C637        C  0.64923082  0.86113582  0.79052145     0.30200
C638        C  0.69354083  0.86227235  0.72979285    -0.06000
C639        C  0.62662728  0.90135033  0.73134459    -0.06800
C640        C  0.62607152  0.82309403  0.73091981    -0.06700
C641        C  0.69450140  0.86182746  0.77061533    -0.06000
C642        C  0.62731654  0.90078162  0.77172592    -0.06800
C643        C  0.62670618  0.82285120  0.77087181    -0.06700
C644        C  0.73330610  0.88160604  0.78121966    -0.32100
N645        N  0.75656879  0.89157667  0.74915700     0.14400
C646        C  0.73150324  0.88244510  0.71797790    -0.32100
H647        H  0.73855344  0.89358952  0.68895436     0.16400
C648        C  0.60444400  0.93652545  0.78423633    -0.31100
N649        N  0.58945989  0.95837551  0.75286403     0.13100
C650        C  0.60380642  0.93790334  0.72048286    -0.31000
C651        C  0.60968669  0.78384097  0.78276404    -0.31300
N652        N  0.59852767  0.76040900  0.75095224     0.13700
H653        H  0.60681325  0.77279997  0.81239132     0.16300
C654        C  0.60935739  0.78385364  0.71908155    -0.31300
H655        H  0.60751234  0.77238462  0.68951799     0.16300
H656        H  0.59529553  0.94720383  0.69125068     0.16300
H657        H  0.74257280  0.89125522  0.81019207     0.16400
H658        H  0.59666631  0.94460317  0.81392107     0.16300
C659        C  0.15445293  0.65675542  0.96331816     0.30200
C660        C  0.15466639  0.65848444  0.54261802     0.30200
C661        C  0.13339438  0.69634235  0.98244468    -0.06000
C662        C  0.13130791  0.61848479  0.98318402    -0.06800
C663        C  0.19973160  0.65482847  0.98276615    -0.06700
C664        C  0.13264749  0.69716430  0.52260086    -0.06000
C665        C  0.13023677  0.62005084  0.52363764    -0.06800
C666        C  0.19959810  0.65637663  0.52335170    -0.06700
C667        C  0.11195988  0.73509092  0.53323245    -0.32100
N668        N  0.10235254  0.75791192  0.50067175     0.14400
C669        C  0.11445427  0.73396199  0.96952609    -0.32100
H670        H  0.11012043  0.74340442  0.93960514     0.16400
C671        C  0.09784918  0.59177629  0.53510182    -0.31100
N672        N  0.08172281  0.57146996  0.50333763     0.13100
C673        C  0.10297279  0.58635822  0.97169100    -0.31000
C674        C  0.23717025  0.63644959  0.53602322    -0.31300
N675        N  0.25982227  0.62225436  0.50503150     0.13700
H676        H  0.24581796  0.63020508  0.56585666     0.16300
C677        C  0.23686754  0.63203029  0.97274890    -0.31300
H678        H  0.24496524  0.62021878  0.94412242     0.16300
H679        H  0.09530342  0.57711391  0.94224279     0.16300
H680        H  0.10590914  0.74617395  0.56246405     0.16400
H681        H  0.08494441  0.58809414  0.56404576     0.16300
C682        C  0.15685426  0.65922118  0.79237291     0.30200
C683        C  0.15986359  0.65972552  0.71299625     0.30200
C684        C  0.19808354  0.63979614  0.77393621    -0.06000
C685        C  0.12088770  0.63305143  0.77144778    -0.06800
C686        C  0.15345547  0.70394696  0.77315247    -0.06700
C687        C  0.19969044  0.64082708  0.73375195    -0.06000
C688        C  0.12155969  0.63455382  0.73107610    -0.06800
C689        C  0.15483162  0.70445562  0.73256863    -0.06700
C690        C  0.23872637  0.62293000  0.72261750    -0.32100
N691        N  0.26071374  0.61051162  0.75482862     0.14400
C692        C  0.23588127  0.61989011  0.78631351    -0.32100
H693        H  0.24460823  0.61253942  0.81595165     0.16400
C694        C  0.08891517  0.60744845  0.71790747    -0.31100
N695        N  0.07105193  0.58717609  0.74883378     0.13100
C696        C  0.09044859  0.60210005  0.78147020    -0.31000
C697        C  0.13367447  0.74193155  0.72134416    -0.31300
N698        N  0.12139480  0.76445514  0.75315571     0.13700
H699        H  0.12543003  0.75109589  0.69206404     0.16300
C700        C  0.13268104  0.74129457  0.78484999    -0.31300
H701        H  0.12309031  0.74923668  0.81416482     0.16300
H702        H  0.08417166  0.58932988  0.81007697     0.16300
H703        H  0.25033519  0.61910581  0.69323804     0.16400
H704        H  0.08070630  0.60057035  0.68805897     0.16300
O705        O  0.06256389  0.03211464  0.96300198    -0.72800
O706        O  0.93963021  0.98752049  0.96265998    -0.73800
O707        O  0.97880975  0.07063831  0.96226369    -0.62400
O708        O  0.02408332  0.94835068  0.96385230    -0.70800
O709        O  0.02391500  0.94977724  0.52812200    -0.70300
O710        O  0.97727997  0.07068928  0.52650426    -0.61600
O711        O  0.94025201  0.98736988  0.52692260    -0.74100
O712        O  0.06159302  0.03417955  0.52725548    -0.72900
Cu713      Cu  0.00130967  0.00955960  0.96062357     1.04600
Cu714      Cu  0.00081577  0.01049343  0.52938081     1.04300
C715        C  0.08114530  0.04094259  0.49520546     0.93400
C716        C  0.92050752  0.98076148  0.49490537     0.92600
C717        C  0.97079189  0.08978970  0.49425871     0.84700
C718        C  0.03097918  0.92975251  0.49639600     0.91000
O719        O  0.97735180  0.06916341  0.77821016    -0.72800
O720        O  0.03041903  0.95103704  0.78286665    -0.73800
O721        O  0.06294730  0.03651421  0.77981178    -0.62400
O722        O  0.94354752  0.98366073  0.78108751    -0.70800
O723        O  0.94394407  0.98018859  0.71693881    -0.70300
O724        O  0.06310747  0.03369492  0.71566093    -0.61600
O725        O  0.03030672  0.94784502  0.71865159    -0.74100
O726        O  0.97650852  0.06634929  0.71399419    -0.72900
Cu727      Cu  0.00345217  0.01013888  0.78270707     1.04600
Cu728      Cu  0.00343231  0.00689870  0.71403975     1.04300
C729        C  0.96883793  0.08656851  0.74555261     0.93400
C730        C  0.03940322  0.93108048  0.75148952     0.92600
C731        C  0.08198843  0.04331476  0.74752143     0.84700
C732        C  0.92476874  0.97375047  0.74923737     0.91000
O733        O  0.47720155  0.44491026  0.97024296    -0.72800
O734        O  0.52976349  0.56413305  0.96850076    -0.73800
O735        O  0.56377050  0.47947713  0.96713999    -0.62400
O736        O  0.44410487  0.53070811  0.97163363    -0.70800
O737        O  0.44583330  0.52941842  0.53583916    -0.70300
O738        O  0.56619289  0.47945704  0.53134623    -0.61600
O739        O  0.53205585  0.56397547  0.53267899    -0.74100
O740        O  0.48093341  0.44382666  0.53443032    -0.72900
Cu741      Cu  0.50349964  0.50463892  0.96715324     1.04600
Cu742      Cu  0.50625327  0.50407813  0.53583167     1.04300
C743        C  0.47069906  0.42563937  0.50244384     0.93400
C744        C  0.53994166  0.58257364  0.50037512     0.92600
C745        C  0.58441959  0.47265204  0.49868251     0.84700
C746        C  0.42648076  0.53900546  0.50421924     0.91000
O747        O  0.49084384  0.44220461  0.71564275    -0.72800
O748        O  0.53058629  0.56611292  0.71943596    -0.73800
O749        O  0.57305369  0.48461406  0.71773935    -0.62400
O750        O  0.44815818  0.52414440  0.71788109    -0.70800
O751        O  0.44953972  0.52538674  0.78214940    -0.70300
O752        O  0.57092673  0.48020483  0.78185510    -0.61600
O753        O  0.53310002  0.56341820  0.78358120    -0.74100
O754        O  0.48733069  0.44186953  0.77982825    -0.72900
Cu755      Cu  0.51066753  0.50431569  0.71534915     1.04600
Cu756      Cu  0.51019258  0.50257350  0.78404124     1.04300
C757        C  0.48241561  0.42263429  0.74732554     0.93400
C758        C  0.53881132  0.58409213  0.75198496     0.92600
C759        C  0.59136079  0.47560881  0.75000086     0.84700
C760        C  0.42955759  0.53182514  0.75026753     0.91000
C761        C  0.31003087  0.55424249  0.73028459    -0.09000
C762        C  0.30268233  0.58984426  0.75483096     0.07200
C763        C  0.33728236  0.60548621  0.77783626    -0.02800
C764        C  0.37797135  0.58552462  0.77616698    -0.07200
C765        C  0.38542804  0.55034511  0.75140958     0.06300
C766        C  0.35097823  0.53433173  0.72852791    -0.02200
Br767      Br  0.35744022  0.48390445  0.69652284    -0.01900
H768        H  0.28360854  0.54172027  0.71270341     0.10200
H769        H  0.40441078  0.59839600  0.79357666     0.08200
Br770      Br  0.33262101  0.65607211  0.80955693    -0.02400
C771        C  0.04396646  0.85488573  0.72941707    -0.09000
C772        C  0.06025076  0.88817078  0.75301745     0.07200
C773        C  0.09625669  0.87986661  0.77727763    -0.02800
C774        C  0.11537747  0.83876741  0.77735457    -0.07200
C775        C  0.09937107  0.80552460  0.75348995     0.06300
C776        C  0.06279660  0.81366925  0.72977969    -0.02200
Br777      Br  0.03504208  0.76930164  0.69954334    -0.01900
H778        H  0.01586632  0.86075957  0.71114470     0.10200
H779        H  0.14363859  0.83291812  0.79540276     0.08200
Br780      Br  0.12274181  0.92417208  0.80856253    -0.02400
C781        C  0.11618220  0.65478256  0.85669528    -0.09000
C782        C  0.15550990  0.66144553  0.83666988     0.07200
C783        C  0.19100189  0.67721873  0.85858674    -0.02800
C784        C  0.19045237  0.67407520  0.89892729    -0.07200
C785        C  0.15332173  0.65938921  0.91899163     0.06300
C786        C  0.11438706  0.65499269  0.89715914    -0.02200
Br787      Br  0.05683514  0.65619439  0.91926573    -0.01900
H788        H  0.08578267  0.65287919  0.84109730     0.10200
H789        H  0.21839534  0.68629868  0.91457931     0.08200
Br790      Br  0.23717960  0.71092944  0.83635285    -0.02400
C791        C  0.15609721  0.61995700  0.60751102    -0.09000
C792        C  0.15836956  0.65915938  0.58676101     0.07200
C793        C  0.17340203  0.69600302  0.60728268    -0.02800
C794        C  0.17421291  0.69557953  0.64774115    -0.07200
C795        C  0.16338703  0.65811116  0.66881742     0.06300
C796        C  0.16006797  0.61885677  0.64777806    -0.02200
Br797      Br  0.16618568  0.56237480  0.67083807    -0.01900
H798        H  0.15414236  0.58937401  0.59239415     0.10200
H799        H  0.18601291  0.72415222  0.66249914     0.08200
Br800      Br  0.19980170  0.74539179  0.58270631    -0.02400
C801        C  0.33461131  0.61653625  0.98205095    -0.09000
C802        C  0.30122033  0.60063523  0.50565554     0.07200
C803        C  0.30937540  0.56437747  0.52950890    -0.02800
C804        C  0.35063175  0.54493162  0.52923458    -0.07200
C805        C  0.38380682  0.56074183  0.50510675     0.06300
C806        C  0.37565787  0.59723433  0.98178820    -0.02200
Br807      Br  0.42018681  0.62410021  0.95100357    -0.01900
H808        H  0.32881290  0.64479440  0.96421381     0.10200
H809        H  0.35650375  0.51674524  0.54716756     0.08200
Br810      Br  0.26482517  0.53819103  0.56067767    -0.02400
C811        C  0.08410915  0.87472006  0.97420839    -0.09000
C812        C  0.04813753  0.88509495  0.49737776     0.07200
C813        C  0.03048338  0.85313723  0.52201984    -0.02800
C814        C  0.04850207  0.81145419  0.52262191    -0.07200
C815        C  0.08450110  0.80101864  0.49941819     0.06300
C816        C  0.10292476  0.83350141  0.97564730    -0.02200
Br817      Br  0.15638485  0.82517348  0.94783088    -0.01900
H818        H  0.09875881  0.89937046  0.95605569     0.10200
H819        H  0.03421926  0.78692170  0.54108776     0.08200
Br820      Br  0.98076498  0.86410422  0.55422009    -0.02400
C821        C  0.60012296  0.68698966  0.77820620    -0.09000
C822        C  0.58269883  0.71647547  0.75137841     0.07200
C823        C  0.54997054  0.70216376  0.72560394    -0.02800
C824        C  0.53662639  0.65885046  0.72613406    -0.07200
C825        C  0.55427303  0.62937754  0.75277179     0.06300
C826        C  0.58609176  0.64389759  0.77930477    -0.02200
Br827      Br  0.61357504  0.60615963  0.81615685    -0.01900
H828        H  0.62541482  0.69738213  0.79803349     0.10200
H829        H  0.51144252  0.64836322  0.70619066     0.08200
Br830      Br  0.51959725  0.74056142  0.69126305    -0.02400
C831        C  0.80741824  0.94636572  0.77483175    -0.09000
C832        C  0.79846234  0.91275973  0.74851041     0.07200
C833        C  0.83145013  0.89965036  0.72255333    -0.02800
C834        C  0.87193144  0.92048793  0.72295184    -0.07200
C835        C  0.88097051  0.95377803  0.74947360     0.06300
C836        C  0.84817167  0.96680738  0.77557820    -0.02200
Br837      Br  0.85609329  0.01385350  0.81134199    -0.01900
H838        H  0.78236370  0.95713382  0.79464202     0.10200
H839        H  0.89699860  0.90970206  0.70310752     0.08200
Br840      Br  0.82475376  0.85123456  0.68809078    -0.02400
C841        C  0.60869220  0.86468218  0.89587044    -0.09000
C842        C  0.64741981  0.85859804  0.91697220     0.07200
C843        C  0.68414318  0.84336661  0.89629454    -0.02800
C844        C  0.68430856  0.84471387  0.85584340    -0.07200
C845        C  0.64749595  0.85814067  0.83471904     0.06300
C846        C  0.60806320  0.86318774  0.85547860    -0.02200
Br847      Br  0.55136928  0.86291962  0.83157438    -0.01900
H848        H  0.57795633  0.86833306  0.91073563     0.10200
H849        H  0.71270047  0.83243256  0.84107181     0.08200
Br850      Br  0.73286888  0.81489258  0.92038741    -0.02400
C851        C  0.68049503  0.84238261  0.64588718    -0.09000
C852        C  0.64503543  0.85903754  0.66699851     0.07200
C853        C  0.60568832  0.86576454  0.64638530    -0.02800
C854        C  0.60591739  0.86620922  0.60586221    -0.07200
C855        C  0.64390801  0.85683949  0.58469749     0.06300
C856        C  0.67945736  0.83951028  0.60551734    -0.02200
Br857      Br  0.72438163  0.80576332  0.58148420    -0.01900
H858        H  0.70836345  0.82891807  0.66073730     0.10200
H859        H  0.57532484  0.87126574  0.59107704     0.08200
Br860      Br  0.54942696  0.86834917  0.67076385    -0.02400
C861        C  0.54743155  0.65595653  0.97180537    -0.09000
C862        C  0.56085910  0.62573828  0.49963475     0.07200
C863        C  0.59427738  0.63726031  0.52577555    -0.02800
C864        C  0.61248840  0.67879874  0.52442703    -0.07200
C865        C  0.59845540  0.70947611  0.49715965     0.06300
C866        C  0.56547828  0.69759168  0.97048358    -0.02200
Br867      Br  0.54061254  0.73702570  0.93359067    -0.01900
H868        H  0.52184181  0.64752532  0.95151388     0.10200
H869        H  0.63822602  0.68717182  0.54457552     0.08200
Br870      Br  0.61864113  0.59691301  0.56211432    -0.02400
C871        C  0.86588477  0.93161086  0.52283942    -0.09000
C872        C  0.87560296  0.96406396  0.49594218     0.06800
C873        C  0.84224604  0.98005258  0.97183597    -0.02800
C874        C  0.79992819  0.96348742  0.97533068    -0.07200
C875        C  0.79017907  0.93061475  0.50216335     0.06300
C876        C  0.82405546  0.91432462  0.52571546    -0.02200
Br877      Br  0.81761452  0.86580377  0.55963008    -0.01900
H878        H  0.89146844  0.91863417  0.54108738     0.10200
H879        H  0.77442494  0.97626354  0.95692490     0.08200
Br880      Br  0.85202548  0.02565824  0.93507403    -0.02400
C881        C  0.51471161  0.97697491  0.77089120    -0.09000
C882        C  0.55423042  0.98898405  0.75359089     0.07200
C883        C  0.55754043  0.02959658  0.73533875    -0.02800
C884        C  0.52119739  0.05710913  0.73373273    -0.07200
C885        C  0.48160150  0.04481421  0.75082794     0.06300
C886        C  0.47863758  0.00446239  0.76970569    -0.02200
Br887      Br  0.42520241  0.98444763  0.79235678    -0.01900
H888        H  0.51168741  0.94554062  0.78453309     0.10200
H889        H  0.52394218  0.08839959  0.71978515     0.08200
Br890      Br  0.61177726  0.04925579  0.71438991    -0.02400
C891        C  0.46492415  0.30311899  0.72473701    -0.09000
C892        C  0.42967896  0.29346654  0.74924554     0.07200
C893        C  0.41166135  0.32707941  0.77186086    -0.02800
C894        C  0.42987245  0.36847541  0.77094221    -0.07200
C895        C  0.46518844  0.37801736  0.74685313     0.06300
C896        C  0.48265111  0.34502986  0.72326030    -0.02200
Br897      Br  0.53198336  0.35479377  0.69030588    -0.01900
H898        H  0.47893106  0.27779345  0.70698583     0.10200
H899        H  0.41545736  0.39385860  0.78842838     0.08200
Br900      Br  0.35971169  0.32051992  0.80170164    -0.02400
C901        C  0.19837749  0.07273134  0.72082793    -0.09000
C902        C  0.20860228  0.10347983  0.74948237     0.07200
C903        C  0.17666908  0.11413072  0.77733181    -0.02800
C904        C  0.13600776  0.09371088  0.77625754    -0.07200
C905        C  0.12577040  0.06326092  0.74741480     0.06300
C906        C  0.15751350  0.05278612  0.71944519    -0.02200
Br907      Br  0.14843967  0.00973006  0.68004559    -0.01900
H908        H  0.22267187  0.06348061  0.69970675     0.10200
H909        H  0.11178534  0.10252179  0.79764897     0.08200
Br910      Br  0.18484376  0.15827075  0.81590272    -0.02400
C911        C  0.53079140  0.06016641  0.50341953    -0.09000
C912        C  0.48580205  0.05221669  0.50154897     0.07200
C913        C  0.47067384  0.00915909  0.99930015    -0.02800
C914        C  0.50027895  0.97494459  0.99840118    -0.07200
C915        C  0.54506245  0.98276700  0.50016536     0.06300
C916        C  0.56049106  0.02558207  0.50289551    -0.02200
Br917      Br  0.62162683  0.03747089  0.50588279    -0.01900
H918        H  0.54263664  0.09316843  0.50525054     0.10200
H919        H  0.48843216  0.94191613  0.99668839     0.08200
Br920      Br  0.40988774  0.99537106  0.99811900    -0.02400
C921        C  0.36623809  0.10986333  0.85425765    -0.09000
C922        C  0.35830631  0.14812702  0.83340993     0.07200
C923        C  0.34109684  0.18346362  0.85437745    -0.02800
C924        C  0.34370515  0.18405585  0.89478918    -0.07200
C925        C  0.35936743  0.14813371  0.91565387     0.06300
C926        C  0.36518061  0.10911529  0.89465075    -0.02200
Br927      Br  0.36466649  0.05260725  0.91778287    -0.01900
H928        H  0.37009964  0.07938167  0.83927710     0.10200
H929        H  0.33039788  0.21172928  0.90986137     0.08200
Br930      Br  0.30631071  0.22762267  0.83064318    -0.02400
C931        C  0.34172135  0.18435337  0.60436199    -0.09000
C932        C  0.35559188  0.14770968  0.58345949     0.07200
C933        C  0.36075970  0.10875643  0.60451745    -0.02800
C934        C  0.36320014  0.10989701  0.64491897    -0.07200
C935        C  0.35725789  0.14868172  0.66569398     0.06300
C936        C  0.34090136  0.18463222  0.64484104    -0.02200
Br937      Br  0.31167854  0.23271246  0.66891533    -0.01900
H938        H  0.32909200  0.21236046  0.58936320     0.10200
H939        H  0.36722612  0.07954929  0.66006348     0.08200
Br940      Br  0.35872986  0.05230343  0.58107855    -0.02400
C941        C  0.47284469  0.34732221  0.51977539    -0.09000
C942        C  0.45072211  0.38214844  0.50256414     0.07200
C943        C  0.40982191  0.37482077  0.98516986    -0.02800
C944        C  0.39225787  0.33296889  0.98422249    -0.07200
C945        C  0.41447526  0.29808193  0.50108565     0.06300
C946        C  0.45504888  0.30543173  0.51906807    -0.02200
Br947      Br  0.48811000  0.25888592  0.54108042    -0.01900
H948        H  0.50436065  0.35258634  0.53314987     0.10200
H949        H  0.36064756  0.32765603  0.97107321     0.08200
Br950      Br  0.37541474  0.42154077  0.96497419    -0.02400
C951        C  0.18156200  0.10709730  0.02001692    -0.09000
C952        C  0.21275820  0.08829630  0.49553062     0.07200
C953        C  0.19994630  0.05439824  0.47048991    -0.02800
C954        C  0.15670594  0.04014326  0.47030202    -0.07200
C955        C  0.12581345  0.05844877  0.49526621     0.06300
C956        C  0.13838144  0.09257563  0.02003974    -0.02200
Br957      Br  0.09755860  0.12225629  0.05272661    -0.01900
H958        H  0.19082478  0.13360060  0.03889191     0.10200
H959        H  0.14745668  0.01364262  0.45137675     0.08200
Br960      Br  0.24043609  0.02374679  0.43830654    -0.02400
C961        C  0.01630186  0.47982843  0.76284585    -0.09000
C962        C  0.97484544  0.48817869  0.74761058     0.07200
C963        C  0.96573498  0.52914157  0.73175754    -0.02800
C964        C  0.99803962  0.56124413  0.73155416    -0.07200
C965        C  0.03934785  0.55305324  0.74730830     0.06300
C966        C  0.04859640  0.51175911  0.76258482    -0.02200
Br967      Br  0.10539944  0.49680417  0.78150245    -0.01900
H968        H  0.02358826  0.44807248  0.77448452     0.10200
H969        H  0.99071300  0.59301995  0.72000003     0.08200
Br970      Br  0.90894016  0.54313503  0.71247118    -0.02400
C971        C  0.90159969  0.18636664  0.72194917    -0.09000
C972        C  0.92002522  0.21687431  0.74740959     0.07200
C973        C  0.95547300  0.20436459  0.77091290    -0.02800
C974        C  0.97035814  0.16168143  0.76988573    -0.07200
C975        C  0.95159672  0.13108186  0.74487338     0.06300
C976        C  0.91719844  0.14378673  0.72034124    -0.02200
Br977      Br  0.88873892  0.10395189  0.68586047    -0.01900
H978        H  0.87453775  0.19564877  0.70361802     0.10200
H979        H  0.99759593  0.15255955  0.78812603     0.08200
Br980      Br  0.98762247  0.24450059  0.80239329    -0.02400
C981        C  0.69296415  0.41279355  0.77576108    -0.09000
C982        C  0.72415057  0.43295483  0.75220665     0.07200
C983        C  0.71149234  0.46779372  0.72835907    -0.02800
C984        C  0.66786273  0.48079589  0.72747349    -0.07200
C985        C  0.63664753  0.46019507  0.75074098     0.06300
C986        C  0.64954508  0.42602768  0.77523653    -0.02200
Br987      Br  0.60890448  0.39406301  0.80644437    -0.01900
H988        H  0.70227989  0.38563551  0.79378751     0.10200
H989        H  0.65845889  0.50776460  0.70923090     0.08200
Br990      Br  0.75277241  0.50057599  0.69868965    -0.02400
C991        C  0.96938668  0.52540171  0.01659769    -0.09000
C992        C  0.97370861  0.48539453  0.49775066     0.07200
C993        C  0.01392412  0.47422301  0.48083907    -0.02800
C994        C  0.04904552  0.50289726  0.48312560    -0.07200
C995        C  0.04498243  0.54271460  0.50222373     0.06300
C996        C  0.00445043  0.55436280  0.01847606    -0.02200
Br997      Br  0.99421717  0.61041424  0.04072887    -0.01900
H998        H  0.93843273  0.53421184  0.02936855     0.10200
H999        H  0.07998649  0.49394094  0.47041143     0.08200
Br1000     Br  0.02350789  0.41915583  0.45649466    -0.02400
C1001       C  0.90599638  0.36959956  0.89647079    -0.09000
C1002       C  0.86564196  0.36484879  0.91536987     0.07200
C1003       C  0.83055121  0.34904812  0.89273053    -0.02800
C1004       C  0.83301768  0.35095522  0.85236958    -0.07200
C1005       C  0.87109603  0.36482448  0.83335067     0.06300
C1006       C  0.90934357  0.36796218  0.85610240    -0.02200
Br1007     Br  0.96716600  0.36221116  0.83546579    -0.01900
H1008       H  0.93563411  0.37239190  0.91328029     0.10200
H1009       H  0.80552148  0.33926349  0.83571322     0.08200
Br1010     Br  0.78259796  0.31621646  0.91335495    -0.02400
C1011       C  0.90706104  0.37012685  0.64478244    -0.09000
C1012       C  0.86792288  0.36520985  0.66542757     0.07200
C1013       C  0.83124376  0.35031237  0.64428991    -0.02800
C1014       C  0.83116323  0.35291270  0.60390242    -0.07200
C1015       C  0.86841007  0.36597408  0.58325045     0.06300
C1016       C  0.90796707  0.36855238  0.60431618    -0.02200
Br1017     Br  0.96450320  0.36279445  0.58094161    -0.01900
H1018       H  0.93764633  0.37279226  0.66020050     0.10200
H1019       H  0.80252607  0.34174455  0.58858316     0.08200
Br1020     Br  0.78361080  0.31878472  0.66710381    -0.02400
C1021       C  0.91923053  0.14399636  0.52021844    -0.09000
C1022       C  0.95308413  0.13406836  0.49441967     0.07200
C1023       C  0.96933394  0.16663655  0.96979824    -0.02800
C1024       C  0.95212526  0.20844113  0.97181327    -0.07200
C1025       C  0.91839536  0.21846037  0.49769877     0.06300
C1026       C  0.90135121  0.18557600  0.52160583    -0.02200
Br1027     Br  0.85143935  0.19442774  0.55406248    -0.01900
H1028       H  0.90586009  0.11894978  0.53871380     0.10200
H1029       H  0.96545377  0.23350591  0.95335121     0.08200
Br1030     Br  0.01648507  0.15671422  0.93442832    -0.02400
C1031       C  0.70346275  0.45551229  0.97267540    -0.09000
C1032       C  0.71621662  0.42572037  0.50129124     0.07200
C1033       C  0.68475508  0.41097251  0.52812207    -0.02800
C1034       C  0.64237406  0.42709671  0.52667089    -0.07200
C1035       C  0.62963116  0.45658063  0.49803136     0.06300
C1036       C  0.66056427  0.47067723  0.97057460    -0.02200
Br1037     Br  0.64704407  0.51190613  0.93069276    -0.01900
H1038       H  0.72705443  0.46711918  0.95183677     0.10200
H1039       H  0.61872255  0.41541983  0.54748293     0.08200
Br1040     Br  0.69543050  0.36571189  0.56506455    -0.02400
loop_ 
_geom_bond_atom_site_label_1 
_geom_bond_atom_site_label_2 
_geom_bond_distance 
_geom_bond_site_symmetry_2 
_ccdc_geom_bond_type 
C1            C3   1.545       .  S
C1            C5   1.530       .  S
C1            C4   1.538       .  S
C1          C495   1.530       .  S
C2            C6   1.541       .  S
C2            C8   1.524       .  S
C2            C7   1.545       .  S
C2          C482   1.530       .  S
C3           C11   1.378       .  A
C3          C526   1.401   1_554  A
C4           C15   1.376       .  A
C4          C527   1.397   1_554  A
C5           C19   1.376       .  A
C5          C528   1.385   1_554  A
C6            C9   1.378       .  A
C6          C523   1.401       .  A
C7           C13   1.378       .  A
C7          C524   1.397       .  A
C8           C16   1.372       .  A
C8          C525   1.385       .  A
C9           N10   1.356       .  A
C9           H22   1.082       .  S
N10         C531   1.356       .  A
N10        C1032   1.441       .  S
C11         N530   1.356       .  A
C11          H12   1.082       .  S
C13         N534   1.356       .  A
C13          H23   1.082       .  S
N14          C15   1.354   1_556  A
N14         C533   1.356       .  A
N14         C472   1.433       .  S
C15          H21   1.082       .  S
C16         N537   1.357       .  A
C16          H18   1.083       .  S
N17          C19   1.359   1_556  A
N17         C536   1.357       .  A
N17         C505   1.435       .  S
C19          H20   1.082       .  S
C24          C26   1.528       .  S
C24          C28   1.538       .  S
C24          C27   1.544       .  S
C24         C492   1.528       .  S
C25          C29   1.530       .  S
C25          C31   1.542       .  S
C25          C30   1.543       .  S
C25         C485   1.530       .  S
C26          C34   1.375       .  A
C26          C29   1.387       .  A
C27          C38   1.380       .  A
C27          C30   1.400       .  A
C28          C42   1.377       .  A
C28          C31   1.395       .  A
C29          C32   1.375       .  A
C30          C36   1.378       .  A
C31          C39   1.379       .  A
C32          N33   1.360       .  A
C32          H45   1.082       .  S
N33          C34   1.358       .  A
N33         C452   1.438       .  S
C34          H35   1.083       .  S
C36          N37   1.355       .  A
C36          H46   1.082       .  S
N37          C38   1.355       .  A
N37         C442   1.432       .  S
C38          H44   1.082       .  S
C39          N40   1.356       .  A
C39          H41   1.082       .  S
N40          C42   1.355       .  A
N40         C462   1.435       .  S
C42          H43   1.082       .  S
C47          C49   1.549       .  S
C47          C51   1.530       .  S
C47          C50   1.544       .  S
C47         C412   1.532       .  S
C48          C52   1.548       .  S
C48          C54   1.526       .  S
C48          C53   1.544       .  S
C48         C405   1.531       .  S
C49          C57   1.385       .  A
C49         C572   1.410   1_554  A
C50          C61   1.381       .  A
C50         C573   1.396   1_554  A
C51          C65   1.377       .  A
C51         C574   1.382   1_554  A
C52          C55   1.385       .  A
C52         C569   1.410       .  A
C53          C59   1.380       .  A
C53         C570   1.396       .  A
C54          C62   1.375       .  A
C54         C571   1.382       .  A
C55         N576   1.352       .  A
C55          H68   1.082       .  S
N56          C57   1.352       .  A
N56         C575   1.352   1_554  A
N56         C425   1.436       .  S
C57          H58   1.082       .  S
C59         N580   1.356       .  A
C59          H69   1.082       .  S
N60          C61   1.357       .  A
N60         C579   1.356   1_554  A
N60         C392   1.435       .  S
C61          H67   1.082       .  S
C62         N583   1.357       .  A
C62          H64   1.082       .  S
N63          C65   1.359   1_556  A
N63         C582   1.357       .  A
N63         C432   1.438       .  S
C65          H66   1.083       .  S
C70          C72   1.544       .  S
C70          C74   1.525       .  S
C70          C73   1.542       .  S
C70         C402   1.530       .  S
C71          C75   1.541       .  S
C71          C77   1.531       .  S
C71          C76   1.551       .  S
C71         C415   1.530       .  S
C72          C80   1.379       .  A
C72          C75   1.395       .  A
C73          C84   1.380       .  A
C73          C76   1.405       .  A
C74          C88   1.375       .  A
C74          C77   1.383       .  A
C75          C78   1.379       .  A
C76          C82   1.389       .  A
C77          C85   1.376       .  A
C78          N79   1.358       .  A
C78          H91   1.082       .  S
N79          C80   1.360       .  A
N79         C372   1.442       .  S
C80          H81   1.082       .  S
C82          N83   1.355       .  A
C82          H92   1.082       .  S
N83          C84   1.350       .  A
N83         C365   1.436       .  S
C84          H90   1.082       .  S
C85          N86   1.360       .  A
C85          H87   1.082       .  S
N86          C88   1.358       .  A
N86         C382   1.441       .  S
C88          H89   1.082       .  S
C93          C95   1.534       .  S
C93          C97   1.526       .  S
C93          C96   1.549       .  S
C93         C322   1.529       .  S
C94          C98   1.546       .  S
C94         C100   1.533       .  S
C94          C99   1.545       .  S
C94         C335   1.532       .  S
C95         C103   1.374       .  A
C95         C618   1.393       .  A
C96         C107   1.385       .  A
C96         C619   1.409       .  A
C97         C111   1.375       .  A
C97         C620   1.385       .  A
C98         C101   1.381       .  A
C98         C615   1.393   1_554  A
C99         C105   1.385       .  A
C99         C616   1.409   1_554  A
C100        C108   1.379       .  A
C100        C617   1.385   1_554  A
C101        N102   1.361       .  A
C101        H114   1.082       .  S
N102        C623   1.356   1_554  A
N102        C355   1.441       .  S
C103        N622   1.356       .  A
C103        H104   1.082       .  S
C105        N106   1.349       .  A
C105        H115   1.082       .  S
N106        C627   1.350   1_554  A
N106        C395   1.431       .  S
C107        N626   1.350       .  A
C107        H113   1.081       .  S
C108        N109   1.360   1_554  A
C108        H110   1.083       .  S
N109        C631   1.357       .  A
N109        C345   1.442       .  S
C111        N629   1.357       .  A
C111        H112   1.081       .  S
C116        C118   1.546       .  S
C116        C120   1.528       .  S
C116        C119   1.545       .  S
C116        C332   1.532       .  S
C117        C121   1.551       .  S
C117        C123   1.526       .  S
C117        C122   1.541       .  S
C117        C325   1.530       .  S
C118        C126   1.383       .  A
C118        C121   1.410       .  A
C119        C130   1.381       .  A
C119        C122   1.395       .  A
C120        C134   1.376       .  A
C120        C123   1.380       .  A
C121        C124   1.386       .  A
C122        C128   1.378       .  A
C123        C131   1.375       .  A
C124        N125   1.354       .  A
C124        H137   1.081       .  S
N125        C126   1.352       .  A
N125        C312   1.442       .  S
C126        H127   1.082       .  S
C128        N129   1.357       .  A
C128        H138   1.082       .  S
N129        C130   1.358       .  A
N129        C362   1.437       .  S
C130        H136   1.082       .  S
C131        N132   1.358       .  A
C131        H133   1.083       .  S
N132        C134   1.359       .  A
N132        C302   1.440       .  S
C134        H135   1.082       .  S
C139        C141   1.533       .  S
C139        C143   1.544       .  S
C139        C142   1.540       .  S
C139        C265   1.534       .  S
C140        C144   1.537       .  S
C140        C146   1.534       .  S
C140        C145   1.547       .  S
C140        C272   1.529       .  S
C141        C149   1.374       .  A
C141        C664   1.387       .  A
C142        C153   1.376       .  A
C142        C665   1.399       .  A
C143        C157   1.385       .  A
C143        C666   1.403       .  A
C144        C147   1.382       .  A
C144        C661   1.387   1_554  A
C145        C151   1.380       .  A
C145        C662   1.399   1_554  A
C146        C154   1.379       .  A
C146        C663   1.403   1_554  A
C147        N148   1.360       .  A
C147        H160   1.082       .  S
N148        C669   1.357   1_554  A
N148        C295   1.440   1_554  S
C149        N668   1.356       .  A
C149        H150   1.082       .  S
C151        N152   1.356       .  A
C151        H161   1.082       .  S
N152        C673   1.354   1_554  A
N152        C475   1.434       .  S
C153        N672   1.354       .  A
C153        H159   1.082       .  S
C154        N155   1.350       .  A
C154        H156   1.081       .  S
N155        C677   1.354   1_554  A
N155        C282   1.436       .  S
C157        N675   1.354       .  A
C157        H158   1.083       .  S
C162        C164   1.540       .  S
C162        C166   1.536       .  S
C162        C165   1.545       .  S
C162        C262   1.532       .  S
C163        C167   1.533       .  S
C163        C169   1.545       .  S
C163        C168   1.541       .  S
C163        C275   1.531       .  S
C164        C172   1.381       .  A
C164        C167   1.389       .  A
C165        C176   1.380       .  A
C165        C168   1.395       .  A
C166        C180   1.379       .  A
C166        C169   1.403       .  A
C167        C170   1.375       .  A
C168        C174   1.381       .  A
C169        C177   1.383       .  A
C170        N171   1.356       .  A
C170        H183   1.082       .  S
N171        C172   1.360       .  A
N171        C242   1.438       .  S
C172        H173   1.082       .  S
C174        N175   1.355       .  A
C174        H184   1.082       .  S
N175        C176   1.354       .  A
N175        C445   1.434       .  S
C176        H182   1.082       .  S
C177        N178   1.354       .  A
C177        H179   1.080       .  S
N178        C180   1.353       .  A
N178        C255   1.438       .  S
C180        H181   1.083       .  S
O185       Cu193   2.005       .  S
O185        C715   1.277       .  A
O186       Cu193   2.012   1_665  S
O186        C716   1.278       .  A
O187       Cu193   2.009   1_655  S
O187        C717   1.278       .  A
O188       Cu193   2.018   1_565  S
O188        C718   1.279       .  A
O189       Cu194   2.005   1_565  S
O189        C198   1.277   1_554  A
O190       Cu194   1.997   1_655  S
O190        C197   1.276   1_554  A
O191       Cu194   1.992   1_665  S
O191        C196   1.276   1_554  A
O192       Cu194   2.004       .  S
O192        C195   1.277   1_554  A
Cu193      Cu714   2.375       .  S
Cu194      Cu713   2.375   1_554  S
C195        O705   1.277       .  A
C195        C435   1.473       .  S
C196        O706   1.278       .  A
C196        C352   1.471       .  S
C197        O707   1.278       .  A
C197        C502   1.472       .  S
C198        O708   1.279       .  A
C198        C292   1.477       .  S
O199       Cu207   1.997   1_655  S
O199        C209   1.277       .  A
O200       Cu207   2.004   1_565  S
O200        C210   1.277       .  A
O201       Cu207   2.001       .  S
O201        C211   1.277       .  A
O202       Cu207   2.012   1_665  S
O202        C212   1.278       .  A
O203       Cu208   2.005   1_665  S
O203        C212   1.278       .  A
O204       Cu208   2.009       .  S
O204        C211   1.278       .  A
O205       Cu208   2.008   1_565  S
O205        C210   1.278       .  A
O206       Cu208   2.014   1_655  S
O206        C209   1.278       .  A
Cu207      Cu208   2.374       .  S
C209        C455   1.473       .  S
C210        C252   1.473       .  S
C211        C385   1.477       .  S
C212        C315   1.478       .  S
O213       Cu221   2.014       .  S
O213        C743   1.278       .  A
O214       Cu221   2.005       .  S
O214        C744   1.277       .  A
O215       Cu221   2.008       .  S
O215        C745   1.277       .  A
O216       Cu221   2.000       .  S
O216        C746   1.277       .  A
O217       Cu222   2.014       .  S
O217        C226   1.278       .  A
O218       Cu222   1.998       .  S
O218        C225   1.277   1_554  A
O219       Cu222   2.013       .  S
O219        C224   1.278       .  A
O220       Cu222   2.015       .  S
O220        C223   1.277       .  A
Cu221      Cu742   2.374       .  S
Cu222      Cu741   2.374   1_554  S
C223        O733   1.278   1_554  A
C223        C422   1.475       .  S
C224        O734   1.277   1_554  A
C224        C342   1.478   1_554  S
C225        O735   1.277       .  A
C225        C515   1.475       .  S
C226        O736   1.277   1_554  A
C226        C285   1.473       .  S
O227       Cu235   2.010       .  S
O227        C237   1.277       .  A
O228       Cu235   2.007       .  S
O228        C238   1.278       .  A
O229       Cu235   2.012       .  S
O229        C239   1.278       .  A
O230       Cu235   2.017       .  S
O230        C240   1.279       .  A
O231       Cu236   1.993       .  S
O231        C240   1.276       .  A
O232       Cu236   1.991       .  S
O232        C239   1.275       .  A
O233       Cu236   2.004       .  S
O233        C238   1.277       .  A
O234       Cu236   2.005       .  S
O234        C237   1.278       .  A
Cu235      Cu236   2.373       .  S
C237        C375   1.474       .  S
C238        C305   1.475       .  S
C239        C465   1.470       .  S
C240        C245   1.472       .  S
C241        C242   1.406       .  A
C241        C246   1.401       .  A
C241        H248   1.083       .  S
C242        C243   1.410       .  A
C243        C244   1.395       .  A
C243       Br250   1.912       .  S
C244        C245   1.401       .  A
C244        H249   1.084       .  S
C245        C246   1.408       .  A
C246       Br247   1.919       .  S
C251        C252   1.402       .  A
C251        C256   1.398       .  A
C251        H258   1.084       .  S
C252        C253   1.410       .  A
C253        C254   1.398       .  A
C253       Br260   1.921       .  S
C254        C255   1.403       .  A
C254        H259   1.083       .  S
C255        C256   1.412       .  A
C256       Br257   1.919       .  S
C261        C262   1.407       .  A
C261        C266   1.399       .  A
C261        H268   1.078       .  S
C262        C263   1.411       .  A
C263        C264   1.397       .  A
C263       Br270   1.919       .  S
C264        C265   1.409       .  A
C264        H269   1.081       .  S
C265        C266   1.419       .  A
C266       Br267   1.926       .  S
C271        C272   1.408       .  A
C271        C276   1.396       .  A
C271        H278   1.080       .  S
C272        C273   1.416       .  A
C273        C274   1.398       .  A
C273       Br280   1.924       .  S
C274        C275   1.407       .  A
C274        H279   1.080       .  S
C275        C276   1.416       .  A
C276       Br277   1.927       .  S
C281        C286   1.395       .  A
C281        C802   1.400       .  A
C281        H288   1.083       .  S
C282        C283   1.413       .  A
C282        C801   1.400   1_554  A
C283        C284   1.402       .  A
C283       Br290   1.919       .  S
C284        C285   1.404       .  A
C284        H289   1.084       .  S
C285        C806   1.409   1_554  A
C286        C805   1.409       .  A
C286       Br287   1.920       .  S
C291        C296   1.399       .  A
C291        C812   1.401       .  A
C291        H298   1.084       .  S
C292        C293   1.411   1_556  A
C292        C811   1.401       .  A
C293        C294   1.401       .  A
C293       Br300   1.920   1_455  S
C294        C295   1.404   1_554  A
C294        H299   1.083       .  S
C295        C816   1.413       .  A
C296        C815   1.413       .  A
C296       Br297   1.920       .  S
C301        C302   1.405       .  A
C301        C306   1.398       .  A
C301        H308   1.083       .  S
C302        C303   1.412       .  A
C303        C304   1.398       .  A
C303       Br310   1.919       .  S
C304        C305   1.403       .  A
C304        H309   1.084       .  S
C305        C306   1.411       .  A
C306       Br307   1.921       .  S
C311        C312   1.405       .  A
C311        C316   1.400       .  A
C311        H318   1.083       .  S
C312        C313   1.413       .  A
C313        C314   1.398       .  A
C313       Br320   1.920       .  S
C314        C315   1.403       .  A
C314        H319   1.084       .  S
C315        C316   1.411       .  A
C316       Br317   1.920   1_565  S
C321        C322   1.407       .  A
C321        C326   1.396       .  A
C321        H328   1.081       .  S
C322        C323   1.416       .  A
C323        C324   1.398       .  A
C323       Br330   1.925       .  S
C324        C325   1.407       .  A
C324        H329   1.080       .  S
C325        C326   1.416       .  A
C326       Br327   1.925       .  S
C331        C332   1.409       .  A
C331        C336   1.397       .  A
C331        H338   1.081       .  S
C332        C333   1.417       .  A
C333        C334   1.400       .  A
C333       Br340   1.924       .  S
C334        C335   1.407       .  A
C334        H339   1.080       .  S
C335        C336   1.412       .  A
C336       Br337   1.919       .  S
C341        C346   1.399       .  A
C341        C862   1.403       .  A
C341        H348   1.083       .  S
C342        C343   1.411   1_556  A
C342        C861   1.403       .  A
C343        C344   1.399       .  A
C343       Br350   1.921       .  S
C344        C345   1.404   1_554  A
C344        H349   1.083       .  S
C345        C866   1.416       .  A
C346        C865   1.416       .  A
C346       Br347   1.921       .  S
C351        C352   1.399   1_554  A
C351        C356   1.393       .  A
C351        H358   1.084       .  S
C352        C873   1.409       .  A
C353        C354   1.401       .  A
C353        C872   1.409       .  A
C353       Br360   1.920   1_565  S
C354        C875   1.407       .  A
C354        H359   1.083       .  S
C355        C356   1.413       .  A
C355        C874   1.407   1_554  A
C356       Br357   1.912       .  S
C361        C362   1.402       .  A
C361        C366   1.397   1_565  A
C361        H368   1.083       .  S
C362        C363   1.407   1_565  A
C363        C364   1.404       .  A
C363       Br370   1.914       .  S
C364        C365   1.404       .  A
C364        H369   1.083       .  S
C365        C366   1.409       .  A
C366       Br367   1.920   1_545  S
C371        C372   1.406       .  A
C371        C376   1.403       .  A
C371        H378   1.083       .  S
C372        C373   1.412       .  A
C373        C374   1.394       .  A
C373       Br380   1.910       .  S
C374        C375   1.399       .  A
C374        H379   1.084       .  S
C375        C376   1.410       .  A
C376       Br377   1.919       .  S
C381        C382   1.405       .  A
C381        C386   1.397       .  A
C381        H388   1.082       .  S
C382        C383   1.413       .  A
C383        C384   1.398       .  A
C383       Br390   1.921       .  S
C384        C385   1.404       .  A
C384        H389   1.084       .  S
C385        C386   1.411       .  A
C386       Br387   1.921       .  S
C391        C392   1.404       .  A
C391        C396   1.405       .  A
C391        H398   1.083       .  S
C392        C913   1.408   1_554  A
C393        C394   1.395   1_545  A
C393        C912   1.408       .  A
C393       Br400   1.913   1_545  S
C394        C915   1.397       .  A
C394        H399   1.083       .  S
C395        C396   1.406   1_565  A
C395        C914   1.397   1_554  A
C396       Br397   1.914       .  S
C401        C402   1.405       .  A
C401        C406   1.396       .  A
C401        H408   1.080       .  S
C402        C403   1.412       .  A
C403        C404   1.398       .  A
C403       Br410   1.917       .  S
C404        C405   1.408       .  A
C404        H409   1.081       .  S
C405        C406   1.417       .  A
C406       Br407   1.919       .  S
C411        C412   1.408       .  A
C411        C416   1.398       .  A
C411        H418   1.080       .  S
C412        C413   1.415       .  A
C413        C414   1.398       .  A
C413       Br420   1.921       .  S
C414        C415   1.407       .  A
C414        H419   1.080       .  S
C415        C416   1.416       .  A
C416       Br417   1.924       .  S
C421        C422   1.404       .  A
C421        C426   1.403       .  A
C421        H428   1.083       .  S
C422        C943   1.408   1_554  A
C423        C424   1.399       .  A
C423        C942   1.408       .  A
C423       Br430   1.920       .  S
C424        C945   1.402       .  A
C424        H429   1.083       .  S
C425        C426   1.409       .  A
C425        C944   1.402   1_554  A
C426       Br427   1.917       .  S
C431        C436   1.398       .  A
C431        C952   1.404       .  A
C431        H438   1.083       .  S
C432        C433   1.412       .  A
C432        C951   1.404   1_556  A
C433        C434   1.398       .  A
C433       Br440   1.919       .  S
C434        C435   1.402       .  A
C434        H439   1.084       .  S
C435        C956   1.410   1_556  A
C436        C955   1.410       .  A
C436       Br437   1.921       .  S
C441        C442   1.401   1_455  A
C441        C446   1.397       .  A
C441        H448   1.083       .  S
C442        C443   1.406       .  A
C443        C444   1.401       .  A
C443       Br450   1.916       .  S
C444        C445   1.403   1_655  A
C444        H449   1.083       .  S
C445        C446   1.409       .  A
C446       Br447   1.918       .  S
C451        C452   1.405       .  A
C451        C456   1.400       .  A
C451        H458   1.083       .  S
C452        C453   1.411       .  A
C453        C454   1.395       .  A
C453       Br460   1.919       .  S
C454        C455   1.402       .  A
C454        H459   1.084       .  S
C455        C456   1.409       .  A
C456       Br457   1.919       .  S
C461        C462   1.402       .  A
C461        C466   1.395       .  A
C461        H468   1.083       .  S
C462        C463   1.410       .  A
C463        C464   1.399       .  A
C463       Br470   1.918       .  S
C464        C465   1.403       .  A
C464        H469   1.084       .  S
C465        C466   1.409       .  A
C466       Br467   1.922       .  S
C471        C476   1.399   1_655  A
C471        C992   1.401       .  A
C471        H478   1.083       .  S
C472        C473   1.410   1_655  A
C472        C991   1.401   1_556  A
C473        C474   1.396       .  A
C473       Br480   1.919       .  S
C474        C475   1.400   1_556  A
C474        H479   1.083       .  S
C475        C996   1.412       .  A
C476        C995   1.412       .  A
C476       Br477   1.919   1_455  S
C481        C482   1.408       .  A
C481        C486   1.399       .  A
C481        H488   1.082       .  S
C482        C483   1.416       .  A
C483        C484   1.398       .  A
C483       Br490   1.924       .  S
C484        C485   1.408       .  A
C484        H489   1.082       .  S
C485        C486   1.415       .  A
C486       Br487   1.922       .  S
C491        C492   1.406       .  A
C491        C496   1.399       .  A
C491        H498   1.082       .  S
C492        C493   1.417       .  A
C493        C494   1.397       .  A
C493       Br500   1.925       .  S
C494        C495   1.407       .  A
C494        H499   1.081       .  S
C495        C496   1.417       .  A
C496       Br497   1.923       .  S
C501        C502   1.404   1_554  A
C501        C506   1.397       .  A
C501        H508   1.084       .  S
C502       C1023   1.409       .  A
C503        C504   1.397       .  A
C503       C1022   1.409       .  A
C503       Br510   1.920   1_655  S
C504       C1025   1.404       .  A
C504        H509   1.083       .  S
C505        C506   1.409   1_556  A
C505       C1024   1.404       .  A
C506       Br507   1.919       .  S
C511        C516   1.400       .  A
C511       C1032   1.406       .  A
C511        H518   1.082       .  S
C512        C513   1.414       .  A
C512       C1031   1.406   1_554  A
C512        N530   1.441       .  S
C513        C514   1.394       .  A
C513       Br520   1.921       .  S
C514        C515   1.400   1_554  A
C514        H519   1.084       .  S
C515       C1036   1.412       .  A
C516       C1035   1.412       .  A
C516       Br517   1.922       .  S
C521        C523   1.545       .  S
C521        C525   1.530       .  S
C521        C524   1.538       .  S
C521       C1015   1.530       .  S
C522        C526   1.541       .  S
C522        C528   1.524       .  S
C522        C527   1.545       .  S
C522       C1002   1.530       .  S
C523        C531   1.378       .  A
C524        C535   1.376       .  A
C525        C539   1.376       .  A
C526        C529   1.378       .  A
C527        C533   1.378       .  A
C528        C536   1.372       .  A
C529        N530   1.356   1_556  A
C529        H542   1.082       .  S
C531        H532   1.082       .  S
C533        H543   1.082       .  S
N534        C535   1.354       .  A
N534        C992   1.433       .  S
C535        H541   1.082       .  S
C536        H538   1.083       .  S
N537        C539   1.359       .  A
N537       C1025   1.435       .  S
C539        H540   1.082       .  S
C544        C546   1.528       .  S
C544        C548   1.538       .  S
C544        C547   1.544       .  S
C544       C1012   1.528       .  S
C545        C549   1.530       .  S
C545        C551   1.542       .  S
C545        C550   1.543       .  S
C545       C1005   1.530       .  S
C546        C554   1.375       .  A
C546        C549   1.387       .  A
C547        C558   1.380       .  A
C547        C550   1.400       .  A
C548        C562   1.377       .  A
C548        C551   1.395       .  A
C549        C552   1.375       .  A
C550        C556   1.378       .  A
C551        C559   1.379       .  A
C552        N553   1.360       .  A
C552        H565   1.082       .  S
N553        C554   1.358       .  A
N553        C972   1.438       .  S
C554        H555   1.083       .  S
C556        N557   1.355       .  A
C556        H566   1.082       .  S
N557        C558   1.355       .  A
N557        C962   1.432       .  S
C558        H564   1.082       .  S
C559        N560   1.356       .  A
C559        H561   1.082       .  S
N560        C562   1.355       .  A
N560        C982   1.435       .  S
C562        H563   1.082       .  S
C567        C569   1.549       .  S
C567        C571   1.530       .  S
C567        C570   1.544       .  S
C567        C932   1.532       .  S
C568        C572   1.548       .  S
C568        C574   1.526       .  S
C568        C573   1.544       .  S
C568        C925   1.531       .  S
C569        C577   1.385       .  A
C570        C581   1.381       .  A
C571        C585   1.377       .  A
C572        C575   1.385       .  A
C573        C579   1.380       .  A
C574        C582   1.375       .  A
C575        H588   1.082       .  S
N576        C577   1.352       .  A
N576        C945   1.436       .  S
C577        H578   1.082       .  S
C579        H589   1.082       .  S
N580        C581   1.357       .  A
N580        C912   1.435       .  S
C581        H587   1.082       .  S
C582        H584   1.082       .  S
N583        C585   1.359       .  A
N583        C952   1.438       .  S
C585        H586   1.083       .  S
C590        C592   1.544       .  S
C590        C594   1.525       .  S
C590        C593   1.542       .  S
C590        C922   1.530       .  S
C591        C595   1.541       .  S
C591        C597   1.531       .  S
C591        C596   1.551       .  S
C591        C935   1.530       .  S
C592        C600   1.379       .  A
C592        C595   1.395       .  A
C593        C604   1.380       .  A
C593        C596   1.405       .  A
C594        C608   1.375       .  A
C594        C597   1.383       .  A
C595        C598   1.379       .  A
C596        C602   1.389       .  A
C597        C605   1.376       .  A
C598        N599   1.358       .  A
C598        H611   1.082       .  S
N599        C600   1.360       .  A
N599        C892   1.442       .  S
C600        H601   1.082       .  S
C602        N603   1.355       .  A
C602        H612   1.082       .  S
N603        C604   1.350       .  A
N603        C885   1.436       .  S
C604        H610   1.082       .  S
C605        N606   1.360       .  A
C605        H607   1.082       .  S
N606        C608   1.358       .  A
N606        C902   1.441       .  S
C608        H609   1.082       .  S
C613        C615   1.534       .  S
C613        C617   1.526       .  S
C613        C616   1.549       .  S
C613        C842   1.529       .  S
C614        C618   1.546       .  S
C614        C620   1.533       .  S
C614        C619   1.545       .  S
C614        C855   1.532       .  S
C615        C623   1.374       .  A
C616        C627   1.385       .  A
C617        C631   1.375       .  A
C618        C621   1.381       .  A
C619        C625   1.385       .  A
C620        C628   1.379       .  A
C621        N622   1.361       .  A
C621        H634   1.082       .  S
N622        C875   1.441       .  S
C623        H624   1.082       .  S
C625        N626   1.349       .  A
C625        H635   1.082       .  S
N626        C915   1.431       .  S
C627        H633   1.081       .  S
C628        N629   1.360       .  A
C628        H630   1.083       .  S
N629        C865   1.442       .  S
C631        H632   1.081       .  S
C636        C638   1.546       .  S
C636        C640   1.528       .  S
C636        C639   1.545       .  S
C636        C852   1.532       .  S
C637        C641   1.551       .  S
C637        C643   1.526       .  S
C637        C642   1.541       .  S
C637        C845   1.531       .  S
C638        C646   1.382       .  A
C638        C641   1.410       .  A
C639        C650   1.381       .  A
C639        C642   1.395       .  A
C640        C654   1.376       .  A
C640        C643   1.380       .  A
C641        C644   1.386       .  A
C642        C648   1.378       .  A
C643        C651   1.375       .  A
C644        N645   1.354       .  A
C644        H657   1.081       .  S
N645        C646   1.352       .  A
N645        C832   1.442       .  S
C646        H647   1.082       .  S
C648        N649   1.357       .  A
C648        H658   1.082       .  S
N649        C650   1.358       .  A
N649        C882   1.437       .  S
C650        H656   1.082       .  S
C651        N652   1.358       .  A
C651        H653   1.083       .  S
N652        C654   1.359       .  A
N652        C822   1.440       .  S
C654        H655   1.082       .  S
C659        C661   1.533       .  S
C659        C663   1.544       .  S
C659        C662   1.540       .  S
C659        C785   1.534       .  S
C660        C664   1.537       .  S
C660        C666   1.534       .  S
C660        C665   1.547       .  S
C660        C792   1.529       .  S
C661        C669   1.374       .  A
C662        C673   1.376       .  A
C663        C677   1.385       .  A
C664        C667   1.382       .  A
C665        C671   1.380       .  A
C666        C674   1.379       .  A
C667        N668   1.360       .  A
C667        H680   1.082       .  S
N668        C815   1.440       .  S
C669        H670   1.082       .  S
C671        N672   1.356       .  A
C671        H681   1.082       .  S
N672        C995   1.434       .  S
C673        H679   1.082       .  S
C674        N675   1.350       .  A
C674        H676   1.081       .  S
N675        C802   1.436       .  S
C677        H678   1.083       .  S
C682        C684   1.540       .  S
C682        C686   1.536       .  S
C682        C685   1.545       .  S
C682        C782   1.532       .  S
C683        C687   1.533       .  S
C683        C689   1.545       .  S
C683        C688   1.541       .  S
C683        C795   1.531       .  S
C684        C692   1.381       .  A
C684        C687   1.389       .  A
C685        C696   1.380       .  A
C685        C688   1.395       .  A
C686        C700   1.379       .  A
C686        C689   1.403       .  A
C687        C690   1.375       .  A
C688        C694   1.381       .  A
C689        C697   1.383       .  A
C690        N691   1.356       .  A
C690        H703   1.082       .  S
N691        C692   1.360       .  A
N691        C762   1.438       .  S
C692        H693   1.082       .  S
C694        N695   1.355       .  A
C694        H704   1.082       .  S
N695        C696   1.354       .  A
N695        C965   1.434       .  S
C696        H702   1.082       .  S
C697        N698   1.354       .  A
C697        H699   1.080       .  S
N698        C700   1.353       .  A
N698        C775   1.438       .  S
C700        H701   1.083       .  S
O705       Cu713   2.005       .  S
O706       Cu713   2.012   1_665  S
O707       Cu713   2.009   1_655  S
O708       Cu713   2.018   1_565  S
O709       Cu714   2.005   1_565  S
O709        C718   1.277       .  A
O710       Cu714   1.997   1_655  S
O710        C717   1.276       .  A
O711       Cu714   1.992   1_665  S
O711        C716   1.276       .  A
O712       Cu714   2.004       .  S
O712        C715   1.277       .  A
C715        C955   1.473       .  S
C716        C872   1.471       .  S
C717       C1022   1.472       .  S
C718        C812   1.477       .  S
O719       Cu727   1.997   1_655  S
O719        C729   1.277       .  A
O720       Cu727   2.004   1_565  S
O720        C730   1.277       .  A
O721       Cu727   2.001       .  S
O721        C731   1.277       .  A
O722       Cu727   2.012   1_665  S
O722        C732   1.278       .  A
O723       Cu728   2.005   1_665  S
O723        C732   1.278       .  A
O724       Cu728   2.009       .  S
O724        C731   1.278       .  A
O725       Cu728   2.008   1_565  S
O725        C730   1.278       .  A
O726       Cu728   2.014   1_655  S
O726        C729   1.278       .  A
Cu727      Cu728   2.374       .  S
C729        C975   1.473       .  S
C730        C772   1.473       .  S
C731        C905   1.477       .  S
C732        C835   1.478       .  S
O733       Cu741   2.014       .  S
O734       Cu741   2.005       .  S
O735       Cu741   2.008       .  S
O736       Cu741   2.000       .  S
O737       Cu742   2.014       .  S
O737        C746   1.278       .  A
O738       Cu742   1.998       .  S
O738        C745   1.277       .  A
O739       Cu742   2.013       .  S
O739        C744   1.278       .  A
O740       Cu742   2.015       .  S
O740        C743   1.277       .  A
C743        C942   1.475       .  S
C744        C862   1.478       .  S
C745       C1035   1.475       .  S
C746        C805   1.473       .  S
O747       Cu755   2.010       .  S
O747        C757   1.277       .  A
O748       Cu755   2.007       .  S
O748        C758   1.278       .  A
O749       Cu755   2.012       .  S
O749        C759   1.278       .  A
O750       Cu755   2.017       .  S
O750        C760   1.279       .  A
O751       Cu756   1.993       .  S
O751        C760   1.276       .  A
O752       Cu756   1.991       .  S
O752        C759   1.275       .  A
O753       Cu756   2.004       .  S
O753        C758   1.277       .  A
O754       Cu756   2.005       .  S
O754        C757   1.278       .  A
Cu755      Cu756   2.373       .  S
C757        C895   1.474       .  S
C758        C825   1.475       .  S
C759        C985   1.470       .  S
C760        C765   1.472       .  S
C761        C762   1.406       .  A
C761        C766   1.401       .  A
C761        H768   1.083       .  S
C762        C763   1.410       .  A
C763        C764   1.395       .  A
C763       Br770   1.912       .  S
C764        C765   1.401       .  A
C764        H769   1.084       .  S
C765        C766   1.408       .  A
C766       Br767   1.919       .  S
C771        C772   1.402       .  A
C771        C776   1.398       .  A
C771        H778   1.084       .  S
C772        C773   1.410       .  A
C773        C774   1.398       .  A
C773       Br780   1.921       .  S
C774        C775   1.403       .  A
C774        H779   1.083       .  S
C775        C776   1.412       .  A
C776       Br777   1.919       .  S
C781        C782   1.407       .  A
C781        C786   1.399       .  A
C781        H788   1.078       .  S
C782        C783   1.412       .  A
C783        C784   1.397       .  A
C783       Br790   1.919       .  S
C784        C785   1.409       .  A
C784        H789   1.081       .  S
C785        C786   1.419       .  A
C786       Br787   1.926       .  S
C791        C792   1.408       .  A
C791        C796   1.396       .  A
C791        H798   1.080       .  S
C792        C793   1.416       .  A
C793        C794   1.398       .  A
C793       Br800   1.924       .  S
C794        C795   1.407       .  A
C794        H799   1.080       .  S
C795        C796   1.416       .  A
C796       Br797   1.926       .  S
C801        C806   1.395       .  A
C801        H808   1.083       .  S
C802        C803   1.413       .  A
C803        C804   1.402       .  A
C803       Br810   1.919       .  S
C804        C805   1.404       .  A
C804        H809   1.084       .  S
C806       Br807   1.920       .  S
C811        C816   1.399       .  A
C811        H818   1.084       .  S
C812        C813   1.411       .  A
C813        C814   1.401       .  A
C813       Br820   1.920   1_455  S
C814        C815   1.404       .  A
C814        H819   1.083       .  S
C816       Br817   1.920       .  S
C821        C822   1.405       .  A
C821        C826   1.398       .  A
C821        H828   1.083       .  S
C822        C823   1.412       .  A
C823        C824   1.398       .  A
C823       Br830   1.919       .  S
C824        C825   1.403       .  A
C824        H829   1.084       .  S
C825        C826   1.411       .  A
C826       Br827   1.921       .  S
C831        C832   1.405       .  A
C831        C836   1.400       .  A
C831        H838   1.083       .  S
C832        C833   1.413       .  A
C833        C834   1.398       .  A
C833       Br840   1.920       .  S
C834        C835   1.403       .  A
C834        H839   1.084       .  S
C835        C836   1.411       .  A
C836       Br837   1.920   1_565  S
C841        C842   1.407       .  A
C841        C846   1.396       .  A
C841        H848   1.081       .  S
C842        C843   1.416       .  A
C843        C844   1.398       .  A
C843       Br850   1.925       .  S
C844        C845   1.407       .  A
C844        H849   1.080       .  S
C845        C846   1.416       .  A
C846       Br847   1.925       .  S
C851        C852   1.409       .  A
C851        C856   1.397       .  A
C851        H858   1.081       .  S
C852        C853   1.417       .  A
C853        C854   1.400       .  A
C853       Br860   1.924       .  S
C854        C855   1.407       .  A
C854        H859   1.080       .  S
C855        C856   1.412       .  A
C856       Br857   1.919       .  S
C861        C866   1.399       .  A
C861        H868   1.083       .  S
C862        C863   1.411       .  A
C863        C864   1.399       .  A
C863       Br870   1.921       .  S
C864        C865   1.404       .  A
C864        H869   1.083       .  S
C866       Br867   1.921       .  S
C871        C872   1.399       .  A
C871        C876   1.393       .  A
C871        H878   1.084       .  S
C873        C874   1.401       .  A
C873       Br880   1.920   1_565  S
C874        H879   1.083       .  S
C875        C876   1.413       .  A
C876       Br877   1.912       .  S
C881        C882   1.402       .  A
C881        C886   1.397   1_565  A
C881        H888   1.083       .  S
C882        C883   1.407   1_565  A
C883        C884   1.404       .  A
C883       Br890   1.914       .  S
C884        C885   1.404       .  A
C884        H889   1.083       .  S
C885        C886   1.409       .  A
C886       Br887   1.920   1_545  S
C891        C892   1.406       .  A
C891        C896   1.403       .  A
C891        H898   1.083       .  S
C892        C893   1.412       .  A
C893        C894   1.394       .  A
C893       Br900   1.910       .  S
C894        C895   1.399       .  A
C894        H899   1.084       .  S
C895        C896   1.410       .  A
C896       Br897   1.919       .  S
C901        C902   1.405       .  A
C901        C906   1.397       .  A
C901        H908   1.082       .  S
C902        C903   1.413       .  A
C903        C904   1.398       .  A
C903       Br910   1.921       .  S
C904        C905   1.404       .  A
C904        H909   1.084       .  S
C905        C906   1.411       .  A
C906       Br907   1.921       .  S
C911        C912   1.404       .  A
C911        C916   1.405       .  A
C911        H918   1.083       .  S
C913        C914   1.395   1_545  A
C913       Br920   1.913   1_545  S
C914        H919   1.083       .  S
C915        C916   1.406   1_565  A
C916       Br917   1.914       .  S
C921        C922   1.405       .  A
C921        C926   1.396       .  A
C921        H928   1.080       .  S
C922        C923   1.412       .  A
C923        C924   1.398       .  A
C923       Br930   1.917       .  S
C924        C925   1.408       .  A
C924        H929   1.081       .  S
C925        C926   1.417       .  A
C926       Br927   1.919       .  S
C931        C932   1.408       .  A
C931        C936   1.398       .  A
C931        H938   1.080       .  S
C932        C933   1.415       .  A
C933        C934   1.398       .  A
C933       Br940   1.921       .  S
C934        C935   1.407       .  A
C934        H939   1.080       .  S
C935        C936   1.416       .  A
C936       Br937   1.924       .  S
C941        C942   1.404       .  A
C941        C946   1.403       .  A
C941        H948   1.083       .  S
C943        C944   1.399       .  A
C943       Br950   1.920       .  S
C944        H949   1.083       .  S
C945        C946   1.409       .  A
C946       Br947   1.917       .  S
C951        C956   1.398       .  A
C951        H958   1.083       .  S
C952        C953   1.412       .  A
C953        C954   1.398       .  A
C953       Br960   1.919       .  S
C954        C955   1.402       .  A
C954        H959   1.084       .  S
C956       Br957   1.921       .  S
C961        C962   1.401   1_455  A
C961        C966   1.397       .  A
C961        H968   1.083       .  S
C962        C963   1.406       .  A
C963        C964   1.401       .  A
C963       Br970   1.916       .  S
C964        C965   1.403   1_655  A
C964        H969   1.083       .  S
C965        C966   1.409       .  A
C966       Br967   1.918       .  S
C971        C972   1.405       .  A
C971        C976   1.400       .  A
C971        H978   1.083       .  S
C972        C973   1.411       .  A
C973        C974   1.395       .  A
C973       Br980   1.919       .  S
C974        C975   1.402       .  A
C974        H979   1.084       .  S
C975        C976   1.409       .  A
C976       Br977   1.919       .  S
C981        C982   1.402       .  A
C981        C986   1.395       .  A
C981        H988   1.083       .  S
C982        C983   1.410       .  A
C983        C984   1.399       .  A
C983       Br990   1.918       .  S
C984        C985   1.403       .  A
C984        H989   1.084       .  S
C985        C986   1.409       .  A
C986       Br987   1.922       .  S
C991        C996   1.399   1_655  A
C991        H998   1.083       .  S
C992        C993   1.410   1_655  A
C993        C994   1.396       .  A
C993      Br1000   1.919       .  S
C994        C995   1.400       .  A
C994        H999   1.083       .  S
C996       Br997   1.919   1_455  S
C1001      C1002   1.408       .  A
C1001      C1006   1.399       .  A
C1001      H1008   1.082       .  S
C1002      C1003   1.416       .  A
C1003      C1004   1.398       .  A
C1003     Br1010   1.924       .  S
C1004      C1005   1.408       .  A
C1004      H1009   1.082       .  S
C1005      C1006   1.415       .  A
C1006     Br1007   1.922       .  S
C1011      C1012   1.406       .  A
C1011      C1016   1.399       .  A
C1011      H1018   1.082       .  S
C1012      C1013   1.417       .  A
C1013      C1014   1.397       .  A
C1013     Br1020   1.925       .  S
C1014      C1015   1.407       .  A
C1014      H1019   1.081       .  S
C1015      C1016   1.417       .  A
C1016     Br1017   1.923       .  S
C1021      C1022   1.404       .  A
C1021      C1026   1.397       .  A
C1021      H1028   1.084       .  S
C1023      C1024   1.397       .  A
C1023     Br1030   1.920   1_655  S
C1024      H1029   1.083       .  S
C1025      C1026   1.409       .  A
C1026     Br1027   1.919       .  S
C1031      C1036   1.400       .  A
C1031      H1038   1.082       .  S
C1032      C1033   1.414       .  A
C1033      C1034   1.394       .  A
C1033     Br1040   1.921       .  S
C1034      C1035   1.400       .  A
C1034      H1039   1.084       .  S
C1036     Br1037   1.922       .  S
