geometry optimzed in LAMMPS
_audit_creation_date              2020-11-30 
_audit_creation_method            'lammps2cif' 
_symmetry_space_group_name_H-M    'P1' 
_symmetry_Int_Tables_number       1 
_symmetry_cell_setting            triclinic 
loop_ 
_symmetry_equiv_pos_as_xyz 
  x,y,z 
_cell_length_a                    29.814263299994963 
_cell_length_b                    29.825024072916897 
_cell_length_c                    29.78371899877326 
_cell_angle_alpha                 90.00096943631522 
_cell_angle_beta                  89.94222876702038 
_cell_angle_gamma                 89.80874253885428 
loop_ 
_atom_site_label 
_atom_site_type_symbol 
_atom_site_fract_x 
_atom_site_fract_y 
_atom_site_fract_z 
_atom_site_charge 
Fe1        Fe  0.18911711  0.55629682  0.18898263     1.65780
Fe2        Fe  0.19059427  0.44202729  0.18550190     1.73250
Fe3        Fe  0.26645500  0.49807590  0.24980786     1.54410
O4          O  0.29931243  0.55104530  0.21920133    -0.82510
O5          O  0.18155708  0.41601785  0.25006128    -0.80810
O6          O  0.25052098  0.58484878  0.17331596    -0.85010
O7          O  0.19206562  0.58533439  0.25154531    -0.79870
O8          O  0.30385379  0.45252235  0.21187744    -0.81640
O9          O  0.12493043  0.46437763  0.18427239    -0.84390
C10         C  0.21124534  0.57649038  0.28841281     0.96380
C11         C  0.28884522  0.58207168  0.19186001     1.03820
O12         O  0.21572778  0.49891458  0.20802526    -1.13370
O13         O  0.19935339  0.46235589  0.12000806    -0.75800
O14         O  0.18349519  0.53565471  0.12288622    -0.79290
O15         O  0.23582528  0.54211832  0.29387048    -0.79980
C16         C  0.19185350  0.49986800  0.10129488     0.95280
O17         O  0.12487933  0.53530132  0.20452795    -0.77940
O18         O  0.25112613  0.40953715  0.18199582    -0.83130
C19         C  0.20793717  0.41806070  0.28373359     0.97900
C20         C  0.29144058  0.41643566  0.19285414     1.03820
O21         O  0.23936383  0.44647522  0.28621169    -0.78770
C22         C  0.10396217  0.49954027  0.19551168     1.02120
Fe23       Fe  0.81897621  0.44486093  0.19295154     1.65780
Fe24       Fe  0.82233792  0.55827515  0.18646339     1.73250
Fe25       Fe  0.75054550  0.50747995  0.25886584     1.54420
O26         O  0.71665985  0.45233996  0.23466356    -0.82510
O27         O  0.83644859  0.58530277  0.24888280    -0.80810
O28         O  0.75463744  0.42269149  0.17832784    -0.85010
O29         O  0.81479873  0.41588906  0.25634101    -0.79870
O30         O  0.71109784  0.54870563  0.21883337    -0.81640
O31         O  0.88692146  0.53282624  0.18375990    -0.84390
C32         C  0.80243215  0.42816537  0.29529573     0.96380
C33         C  0.72007451  0.42382418  0.20333419     1.03820
O34         O  0.79727297  0.50355328  0.21285528    -1.13370
O35         O  0.81044379  0.53715024  0.12199432    -0.75800
O36         O  0.82525185  0.46412996  0.12592903    -0.79290
O37         O  0.78480768  0.46623258  0.30296667    -0.79980
C38         C  0.81735290  0.49954596  0.10344982     0.95280
O39         O  0.88468311  0.46259957  0.20721221    -0.77940
O40         O  0.76117305  0.59100295  0.18409026    -0.83130
C41         C  0.81265028  0.58714651  0.28425896     0.97900
C42         C  0.72088693  0.58220463  0.19426460     1.03820
O43         O  0.77861779  0.56244414  0.29040303    -0.78770
C44         C  0.90671321  0.49749237  0.19685366     1.02120
Fe45       Fe  0.44709676  0.82166355  0.19365450     1.65780
Fe46       Fe  0.56065811  0.81587025  0.18530975     1.73250
Fe47       Fe  0.50522540  0.74685005  0.25713698     1.54420
O48         O  0.45156163  0.77310930  0.29295617    -0.82510
O49         O  0.58215985  0.75200107  0.17041603    -0.80810
O50         O  0.42873433  0.83493611  0.25926649    -0.85010
O51         O  0.41400684  0.76100883  0.19441647    -0.79870
O52         O  0.55026996  0.78170499  0.29767235    -0.81640
O53         O  0.53456676  0.81857557  0.12104715    -0.84390
C54         C  0.42312502  0.72032052  0.20305393     0.96380
C55         C  0.42757810  0.80832260  0.29235699     1.03820
O56         O  0.50441554  0.79486541  0.21192978    -1.13370
O57         O  0.54596879  0.88228230  0.19672144    -0.75800
O58         O  0.47159169  0.88594588  0.19055211    -0.79290
O59         O  0.46030487  0.70822175  0.22043746    -0.79980
C60         C  0.50962069  0.90419117  0.19462058     0.95280
O61         O  0.46025066  0.81113959  0.12642335    -0.77940
O62         O  0.59338018  0.81528613  0.24657930    -0.83130
C63         C  0.58350422  0.71692343  0.19416909     0.97900
C64         C  0.58559599  0.80317508  0.28677708     1.03820
O65         O  0.55880718  0.71246794  0.22859101    -0.78770
C66         C  0.49608762  0.81358874  0.10351425     1.02120
Fe67       Fe  0.44932685  0.17957269  0.19177259     1.65780
Fe68       Fe  0.56165530  0.18310071  0.18847548     1.73250
Fe69       Fe  0.50574411  0.24958538  0.25963101     1.54420
O70         O  0.44860488  0.28111830  0.23379650    -0.82510
O71         O  0.58591739  0.16461892  0.25041904    -0.80810
O72         O  0.42618557  0.24202808  0.17382032    -0.85010
O73         O  0.41707382  0.18575918  0.25338626    -0.79870
O74         O  0.54451152  0.29204611  0.22131523    -0.81640
O75         O  0.53840772  0.11804770  0.18062360    -0.84390
C76         C  0.42907338  0.19392801  0.29341983     0.96380
C77         C  0.42400965  0.27621673  0.19913062     1.03820
O78         O  0.50558657  0.20407575  0.21364729    -1.13370
O79         O  0.53998203  0.20165401  0.12570291    -0.75800
O80         O  0.47329735  0.16983212  0.12674085    -0.79290
O81         O  0.46739815  0.21015871  0.30159622    -0.79980
C82         C  0.50617707  0.18624790  0.10524571     0.95280
O83         O  0.46922554  0.11603336  0.20889547    -0.77940
O84         O  0.59362142  0.24452619  0.19349369    -0.83130
C85         C  0.58767424  0.18898219  0.28528642     0.97900
C86         C  0.58203464  0.28434931  0.20280950     1.03820
O87         O  0.56281092  0.22347301  0.29045351    -0.78770
C88         C  0.50467315  0.09661689  0.19541429     1.02120
Fe89       Fe  0.56196575  0.18569255  0.82205886     1.65780
Fe90       Fe  0.44877938  0.18434945  0.82296163     1.73250
Fe91       Fe  0.50396393  0.25607937  0.75376914     1.54410
O92         O  0.55763787  0.28827689  0.78115101    -0.82510
O93         O  0.42197284  0.17280621  0.75921227    -0.80810
O94         O  0.58536737  0.25016025  0.83820370    -0.85010
O95         O  0.59264123  0.18879464  0.76071184    -0.79870
O96         O  0.46033320  0.29625988  0.79197610    -0.81640
O97         O  0.47229279  0.11929681  0.82516583    -0.84390
C98         C  0.58406735  0.20150318  0.72112777     0.96380
C99         C  0.58412500  0.28547358  0.81404244     1.03820
O100        O  0.50483120  0.20858997  0.79919440    -1.13370
O101        O  0.46818448  0.19577119  0.88817042    -0.75800
O102        O  0.53971978  0.17756628  0.88737437    -0.79290
O103        O  0.54775373  0.22177599  0.71116316    -0.79980
C104        C  0.50410468  0.18662175  0.90871959     0.95280
O105        O  0.54383957  0.12063822  0.80637382    -0.77940
O106        O  0.41868515  0.24540129  0.82598640    -0.83130
C107        C  0.42250902  0.19817174  0.72479702     0.97900
C108        C  0.42637635  0.28558442  0.81576146     1.03820
O109        O  0.45032227  0.22981146  0.71992277    -0.78770
C110        C  0.50808640  0.09907626  0.81428129     1.02120
Fe111      Fe  0.82438282  0.18562055  0.56130386     1.65780
Fe112      Fe  0.82116326  0.18562507  0.44695917     1.73250
Fe113      Fe  0.74787495  0.24981126  0.50606934     1.54410
O114        O  0.71023267  0.21032882  0.54960238    -0.82510
O115        O  0.81674005  0.24830401  0.41627492    -0.80810
O116        O  0.76325221  0.18199227  0.59366259    -0.85010
O117        O  0.83412207  0.25048680  0.58580353    -0.79870
O118        O  0.71533831  0.22179995  0.45177165    -0.81640
O119        O  0.88620829  0.20120536  0.46433709    -0.84390
C120        C  0.80661219  0.28323708  0.58579682     0.96380
C121        C  0.72243925  0.19094005  0.58569578     1.03820
O122        O  0.79781070  0.20700135  0.50475646    -1.13370
O123        O  0.82749986  0.11980618  0.46935801    -0.75800
O124        O  0.81646106  0.11950727  0.54333322    -0.79290
O125        O  0.77346850  0.28517548  0.55930174    -0.79980
C126        C  0.82153362  0.09916630  0.50627174     0.95280
O127        O  0.88935864  0.18488977  0.53681168    -0.77940
O128        O  0.75845730  0.16833293  0.42332716    -0.83130
C129        C  0.80154381  0.28660579  0.42748100     0.97900
C130        C  0.72205222  0.19036887  0.42390946     1.03820
O131        O  0.78038313  0.29350314  0.46380592    -0.78770
C132        C  0.90842574  0.19423523  0.49991338     1.02120
Fe133      Fe  0.19111398  0.18246166  0.44769249     1.65780
Fe134      Fe  0.18727615  0.18205047  0.56128699     1.73250
Fe135      Fe  0.25531387  0.25450961  0.50597527     1.54410
O136        O  0.29033961  0.22693598  0.45238257    -0.82510
O137        O  0.17057099  0.24488074  0.58533998    -0.80810
O138        O  0.25564871  0.16544260  0.42926921    -0.85010
O139        O  0.19662856  0.24326890  0.41332135    -0.79870
O140        O  0.29735287  0.22025992  0.54892934    -0.81640
O141        O  0.12260138  0.17719030  0.53511058    -0.84390
C142        C  0.20471283  0.28355540  0.42444066     0.96380
C143        C  0.28918174  0.19151263  0.42859575     1.03820
O144        O  0.21149145  0.20617835  0.50528816    -1.13370
O145        O  0.20067821  0.11653827  0.54347933    -0.75800
O146        O  0.18305804  0.11720943  0.47127077    -0.79290
O147        O  0.21803249  0.29402436  0.46336071    -0.79980
C148        C  0.19147257  0.09605467  0.50735166     0.95280
O149        O  0.12598421  0.19910816  0.46369174    -0.77940
O150        O  0.24931183  0.18488193  0.59424900    -0.83130
C151        C  0.19271185  0.28109621  0.58581797     0.97900
C152        C  0.28848425  0.19922065  0.58482615     1.03820
O153        O  0.22564540  0.28795547  0.55957423    -0.78770
C154        C  0.10373791  0.18994947  0.49888087     1.02120
Fe155      Fe  0.18675094  0.44309009  0.82593209     1.65780
Fe156      Fe  0.19242691  0.55796502  0.81931933     1.73250
Fe157      Fe  0.25962700  0.49222713  0.75296583     1.54410
O158        O  0.29428910  0.44244368  0.78633857    -0.82510
O159        O  0.18651068  0.58347702  0.75530706    -0.80810
O160        O  0.24858038  0.41448905  0.83781826    -0.85010
O161        O  0.18041149  0.41085816  0.76440563    -0.79870
O162        O  0.30030307  0.53771102  0.78472757    -0.81640
O163        O  0.12528036  0.54001465  0.81557938    -0.84390
C164        C  0.19707365  0.41474786  0.72532300     0.96380
C165        C  0.28652779  0.41621245  0.81887275     1.03820
O166        O  0.21271924  0.49785281  0.79927273    -1.13370
O167        O  0.19583115  0.54135534  0.88670716    -0.75800
O168        O  0.18910960  0.46702021  0.89038844    -0.79290
O169        O  0.22505864  0.44524132  0.71568746    -0.79980
C170        C  0.19287007  0.50506582  0.90867227     0.95280
O171        O  0.12210770  0.46571456  0.81912067    -0.77940
O172        O  0.25730894  0.58382578  0.82397441    -0.83130
C173        C  0.20628929  0.57531299  0.71856134     0.97900
C174        C  0.29558899  0.57235961  0.80876795     1.03820
O175        O  0.23241929  0.54205217  0.71309860    -0.78770
C176        C  0.10314751  0.50366378  0.81605874     1.02120
Fe177      Fe  0.18581714  0.81378167  0.44831896     1.65780
Fe178      Fe  0.18451301  0.81561392  0.56418620     1.73250
Fe179      Fe  0.25845319  0.75071471  0.50782522     1.54420
O180        O  0.23620000  0.71619646  0.45236956    -0.82510
O181        O  0.24607211  0.83153566  0.59150469    -0.80810
O182        O  0.17702692  0.74965484  0.42259128    -0.85010
O183        O  0.24907678  0.81507388  0.41778479    -0.79870
O184        O  0.22346073  0.70686645  0.54750296    -0.81640
O185        O  0.18036299  0.88101493  0.54078324    -0.84390
C186        C  0.28921712  0.80811615  0.43056611     0.96380
C187        C  0.20539501  0.71777652  0.42316124     1.03820
O188        O  0.20902891  0.79320600  0.50689058    -1.13370
O189        O  0.11994495  0.80280973  0.54489579    -0.75800
O190        O  0.11947025  0.81398746  0.47065536    -0.79290
O191        O  0.29717496  0.79216517  0.46903097    -0.79980
C192        C  0.09955551  0.80772669  0.50797206     0.95280
O193        O  0.19344883  0.88020696  0.46680615    -0.77940
O194        O  0.18713900  0.75263435  0.59474104    -0.83130
C195        C  0.28221381  0.80920051  0.59092632     0.97900
C196        C  0.20242486  0.71419230  0.58383262     1.03820
O197        O  0.28921916  0.77792886  0.56311852    -0.78770
C198        C  0.18743831  0.90090341  0.50366021     1.02120
Fe199      Fe  0.82349442  0.82008674  0.44841198     1.65780
Fe200      Fe  0.81897783  0.81739362  0.56263166     1.73250
Fe201      Fe  0.75053765  0.74999476  0.50119217     1.54420
O202        O  0.71061286  0.78949508  0.45830940    -0.82510
O203        O  0.81691460  0.75396253  0.59132066    -0.80810
O204        O  0.76231584  0.82226834  0.41576022    -0.85010
O205        O  0.83749541  0.75750670  0.42266843    -0.79870
O206        O  0.71555414  0.77459627  0.55716820    -0.81640
O207        O  0.88517185  0.80606594  0.54625241    -0.84390
C208        C  0.81368008  0.72249587  0.42092813     0.96380
C209        C  0.72176799  0.81204199  0.42357385     1.03820
O210        O  0.79759279  0.79592263  0.50410546    -1.13370
O211        O  0.82314306  0.88390646  0.54208974    -0.75800
O212        O  0.81273687  0.88529604  0.46796045    -0.79290
O213        O  0.77942017  0.71701246  0.44597131    -0.79980
C214        C  0.81771382  0.90492118  0.50534494     0.95280
O215        O  0.88820515  0.82102357  0.47293613    -0.77940
O216        O  0.75544815  0.83062102  0.58585925    -0.83130
C217        C  0.80609509  0.71431217  0.58033563     0.97900
C218        C  0.72111042  0.80573058  0.58591981     1.03820
O219        O  0.78590773  0.70685481  0.54347147    -0.78770
C220        C  0.90683018  0.81238441  0.51018669     1.02120
Fe221      Fe  0.44635528  0.81522481  0.82007846     1.65780
Fe222      Fe  0.56043722  0.81529617  0.82878825     1.73250
Fe223      Fe  0.50978797  0.74894978  0.75234175     1.54410
O224        O  0.46898252  0.70595949  0.78793374    -0.82510
O225        O  0.59570430  0.81706482  0.76857521    -0.80810
O226        O  0.41759992  0.75141697  0.81761392    -0.85010
O227        O  0.42400829  0.82815698  0.75607976    -0.79870
O228        O  0.56531738  0.71655498  0.77968112    -0.81640
O229        O  0.54222271  0.88076656  0.81838026    -0.84390
C230        C  0.42478412  0.80337879  0.72159559     0.96380
C231        C  0.43093028  0.71239640  0.80614670     1.03820
O232        O  0.50536969  0.79345408  0.80032116    -1.13370
O233        O  0.53405878  0.81650539  0.89265455    -0.75800
O234        O  0.46051090  0.80508908  0.88722123    -0.79290
O235        O  0.45390177  0.77249165  0.71651205    -0.79980
C236        C  0.49596000  0.80990461  0.91016907     0.95280
O237        O  0.46832860  0.88127047  0.82265392    -0.77940
O238        O  0.58312388  0.75150266  0.84264909    -0.83130
C239        C  0.58829362  0.80825104  0.72750756     0.97900
C240        C  0.58713092  0.71853904  0.81623589     1.03820
O241        O  0.55226246  0.78914662  0.71471489    -0.78770
C242        C  0.50537077  0.90192761  0.81892067     1.02120
Fe243      Fe  0.82196400  0.55676614  0.82391625     1.65780
Fe244      Fe  0.82231513  0.44277564  0.82213859     1.73250
Fe245      Fe  0.75119984  0.50182782  0.75663259     1.54420
O246        O  0.72049344  0.55903795  0.78122407    -0.82510
O247        O  0.83620992  0.42029834  0.75752109    -0.80810
O248        O  0.75870149  0.57994409  0.84109917    -0.85010
O249        O  0.81901988  0.58777837  0.76100927    -0.79870
O250        O  0.71159026  0.46476595  0.79928955    -0.81640
O251        O  0.88784055  0.46590095  0.82746342    -0.84390
C252        C  0.80848111  0.57714433  0.72097463     0.96380
C253        C  0.72416874  0.58247760  0.81648091     1.03820
O254        O  0.79911927  0.50048516  0.80064889    -1.13370
O255        O  0.81009760  0.45990877  0.88819162    -0.75800
O256        O  0.82736463  0.53278117  0.88934135    -0.79290
O257        O  0.78799466  0.54070748  0.71294643    -0.79980
C258        C  0.81805509  0.49613468  0.90910470     0.95280
O259        O  0.88686126  0.53822685  0.80913374    -0.77940
O260        O  0.75965014  0.41178843  0.81964951    -0.83130
C261        C  0.80798729  0.41850508  0.72564959     0.97900
C262        C  0.71963698  0.42569866  0.81394190     1.03820
O263        O  0.77390502  0.44426770  0.72403946    -0.78770
C264        C  0.90790467  0.50219471  0.81773553     1.02120
C265        C  0.64248799  0.60365490  0.81609126    -0.02680
C266        C  0.68723593  0.61466243  0.82726183     0.07000
C267        C  0.69633694  0.65797341  0.84437645    -0.02790
C268        C  0.66221349  0.69093887  0.84535886    -0.02800
C269        C  0.61941414  0.68168933  0.82685666     0.07130
C270        C  0.60908669  0.63707121  0.81485279    -0.02990
Br271      Br  0.54866692  0.62072764  0.79791186    -0.01540
Br272      Br  0.62587385  0.54229079  0.80406629    -0.01610
Br273      Br  0.67574688  0.74888682  0.87098124    -0.01570
Br274      Br  0.75603561  0.67423006  0.86369803    -0.01560
C275        C  0.83663770  0.68509106  0.65522379    -0.02680
C276        C  0.81546203  0.67639445  0.61318029     0.07000
C277        C  0.80138877  0.63155633  0.60484277    -0.02790
C278        C  0.80651359  0.59797051  0.63799284    -0.02800
C279        C  0.81762834  0.60952559  0.68286114     0.07130
C280        C  0.83446358  0.65348010  0.69062887    -0.02990
Br281      Br  0.85490769  0.67290390  0.74937984    -0.01540
Br282      Br  0.87150568  0.73901021  0.66564328    -0.01610
Br283      Br  0.80147415  0.53577378  0.61952134    -0.01570
Br284      Br  0.77296796  0.61376610  0.54933436    -0.01560
C285        C  0.64200627  0.81762854  0.61369921    -0.02680
C286        C  0.68789201  0.81176221  0.62280358     0.07000
C287        C  0.70218617  0.81144482  0.66816609    -0.02790
C288        C  0.67033611  0.81253526  0.70338110    -0.02800
C289        C  0.62404804  0.81759590  0.69349461     0.07130
C290        C  0.61171477  0.82569191  0.64878219    -0.02990
Br291      Br  0.55706912  0.85713144  0.63634395    -0.01540
Br292      Br  0.61872940  0.81103489  0.55435961    -0.01610
Br293      Br  0.69144271  0.80650738  0.76434194    -0.01570
Br294      Br  0.76504522  0.80508074  0.68269716    -0.01560
C295        C  0.02566069  0.77043724  0.49549316    -0.02680
C296        C  0.05023790  0.80818247  0.50925668     0.07000
C297        C  0.02764127  0.84616264  0.52627092    -0.02790
C298        C  0.98052939  0.84693570  0.52786223    -0.02800
C299        C  0.95599325  0.81022379  0.51139218     0.07130
C300        C  0.97851553  0.77193673  0.49520891    -0.02990
Br301      Br  0.94465328  0.72144374  0.47333147    -0.01540
Br302      Br  0.05650570  0.71565174  0.48092294    -0.01610
Br303      Br  0.94949324  0.89840034  0.55215155    -0.01570
Br304      Br  0.06124719  0.89702983  0.54773663    -0.01560
C305        C  0.34281131  0.80597898  0.70232220    -0.02680
C306        C  0.38807008  0.80894591  0.68807001     0.07000
C307        C  0.39712636  0.81594295  0.64211765    -0.02790
C308        C  0.36187222  0.82250009  0.61144421    -0.02800
C309        C  0.31713159  0.81701009  0.62519388     0.07130
C310        C  0.30757673  0.80923664  0.67089427    -0.02990
Br311      Br  0.24650823  0.79887758  0.68994014    -0.01540
Br312      Br  0.32869137  0.79153143  0.76395828    -0.01610
Br313      Br  0.37451432  0.84019307  0.55040984    -0.01570
Br314      Br  0.45703402  0.81278532  0.61958909    -0.01560
C315        C  0.98208515  0.46757494  0.79630622    -0.02680
C316        C  0.95776760  0.50277927  0.81682470     0.07000
C317        C  0.98134355  0.53888907  0.83640193    -0.02790
C318        C  0.02860492  0.54003615  0.83518023    -0.02800
C319        C  0.05309927  0.50498869  0.81410107     0.07130
C320        C  0.02921388  0.46927158  0.79374460    -0.02990
Br321      Br  0.05997925  0.42317582  0.75949498    -0.01540
Br322      Br  0.95144512  0.41638636  0.77113590    -0.01610
Br323      Br  0.05864055  0.58929417  0.86483763    -0.01570
Br324      Br  0.94931689  0.58539481  0.86875544    -0.01560
C325        C  0.33559838  0.63692541  0.84828603    -0.02680
C326        C  0.33567064  0.60242550  0.81542072     0.07000
C327        C  0.37242607  0.60057509  0.78486378    -0.02790
C328        C  0.40168698  0.63725430  0.78063809    -0.02800
C329        C  0.40023444  0.67306647  0.81189513     0.07130
C330        C  0.36830003  0.67128173  0.84716239    -0.02990
Br331      Br  0.36910660  0.71534092  0.89483496    -0.01540
Br332      Br  0.29272666  0.63637028  0.89710398    -0.01610
Br333      Br  0.43926430  0.63970741  0.72738281    -0.01570
Br334      Br  0.38513529  0.54856445  0.74759349    -0.01560
C335        C  0.16191826  0.62378914  0.66466292    -0.02680
C336        C  0.20338241  0.60893930  0.68222930     0.07000
C337        C  0.24344148  0.62927093  0.66768419    -0.02790
C338        C  0.24254460  0.66275028  0.63488015    -0.02800
C339        C  0.20135369  0.67758868  0.61703534     0.07130
C340        C  0.16090808  0.65840000  0.63218424    -0.02990
Br341      Br  0.10465988  0.67891267  0.60772753    -0.01540
Br342      Br  0.10693611  0.59628351  0.68446582    -0.01610
Br343      Br  0.29851339  0.68982386  0.61655064    -0.01570
Br344      Br  0.29994577  0.61483976  0.69559830    -0.01560
C345        C  0.22086353  0.02012821  0.53273728    -0.02680
C346        C  0.19012494  0.04579766  0.50694172     0.07000
C347        C  0.15798175  0.02282680  0.48042000    -0.02790
C348        C  0.15794423  0.97556089  0.47836472    -0.02800
C349        C  0.18893604  0.95051441  0.50377659     0.07130
C350        C  0.22041515  0.97291350  0.53081033    -0.02990
Br351      Br  0.26483163  0.93867256  0.56355697    -0.01540
Br352      Br  0.26453897  0.04835241  0.57086608    -0.01610
Br353      Br  0.11406069  0.94489890  0.44192639    -0.01570
Br354      Br  0.11074081  0.05499851  0.44985408    -0.01560
C355        C  0.18085200  0.39375773  0.64462665    -0.02680
C356        C  0.18585078  0.38082827  0.69010472     0.07000
C357        C  0.18497355  0.33455779  0.70092936    -0.02790
C358        C  0.18303479  0.30196923  0.66671954    -0.02800
C359        C  0.18285394  0.31506069  0.62110875     0.07130
C360        C  0.17990058  0.36103168  0.61032679    -0.02990
Br361      Br  0.17428064  0.37906735  0.54834573    -0.01540
Br362      Br  0.17438021  0.45630998  0.62902377    -0.01610
Br363      Br  0.18637491  0.23912748  0.68296950    -0.01570
Br364      Br  0.19116243  0.31430857  0.76215337    -0.01560
C365        C  0.78638523  0.02605491  0.52968430    -0.02680
C366        C  0.82040192  0.04932813  0.50609291     0.07000
C367        C  0.85326314  0.02463482  0.48226917    -0.02790
C368        C  0.85172289  0.97748045  0.48143851    -0.02800
C369        C  0.81837763  0.95444185  0.50573530     0.07130
C370        C  0.78581189  0.97878028  0.52994977    -0.02990
Br371      Br  0.73896577  0.94720732  0.56160036    -0.01540
Br372      Br  0.73870424  0.05843147  0.55960982    -0.01610
Br373      Br  0.89636930  0.94432882  0.44785585    -0.01570
Br374      Br  0.90242355  0.05473112  0.45290476    -0.01560
C375        C  0.98314833  0.21106569  0.53612743    -0.02680
C376        C  0.95846763  0.19604778  0.49836392     0.07000
C377        C  0.98215897  0.18120714  0.45973290    -0.02790
C378        C  0.02943979  0.18015108  0.45948014    -0.02800
C379        C  0.05391645  0.19377448  0.49780958     0.07130
C380        C  0.03037934  0.21040156  0.53560380    -0.02990
Br381      Br  0.06230369  0.23522381  0.58640830    -0.01540
Br382      Br  0.95328117  0.23407447  0.58912307    -0.01610
Br383      Br  0.05983058  0.15781997  0.40645264    -0.01570
Br384      Br  0.95093812  0.15916843  0.40718420    -0.01560
C385        C  0.77470378  0.35361626  0.68598253    -0.02680
C386        C  0.81136062  0.38272989  0.69104585     0.07000
C387        C  0.84771062  0.37927065  0.66074211    -0.02790
C388        C  0.84743302  0.34596325  0.62668348    -0.02800
C389        C  0.80934680  0.31847107  0.62087410     0.07130
C390        C  0.77189233  0.32492478  0.64910442    -0.02990
Br391      Br  0.71449689  0.29781802  0.63642349    -0.01540
Br392      Br  0.72924814  0.34945936  0.73140064    -0.01610
Br393      Br  0.89645899  0.34173183  0.58481237    -0.01570
Br394      Br  0.89601766  0.42174691  0.66386452    -0.01560
C395        C  0.54708671  0.97614669  0.80954052    -0.02680
C396        C  0.50591267  0.95245890  0.81523134     0.07000
C397        C  0.46549650  0.97802508  0.81709337    -0.02790
C398        C  0.46637363  0.02496766  0.81135847    -0.02800
C399        C  0.50769199  0.04867029  0.81190478     0.07130
C400        C  0.54814082  0.02341151  0.81179613    -0.03290
Br401      Br  0.60649644  0.05175197  0.81687123    -0.01540
Br402      Br  0.60358330  0.94613251  0.79631465    -0.01610
Br403      Br  0.40957114  0.05500847  0.79972188    -0.01570
Br404      Br  0.40734496  0.95123745  0.82894671    -0.01560
C405        C  0.40261198  0.36601106  0.83064987    -0.02680
C406        C  0.39207547  0.31986473  0.82970978     0.07000
C407        C  0.34707541  0.30703204  0.84018133    -0.02790
C408        C  0.31312754  0.33980649  0.84346970    -0.02800
C409        C  0.32279135  0.38485366  0.83296842     0.07130
C410        C  0.36804033  0.39832094  0.83106861    -0.02990
Br411      Br  0.38267108  0.46125483  0.83270772    -0.01540
Br412      Br  0.46385605  0.38547512  0.83575023    -0.01610
Br413      Br  0.25379328  0.32207181  0.86289876    -0.01570
Br414      Br  0.32866878  0.24507096  0.84797507    -0.01560
C415        C  0.32780911  0.23376315  0.64908286    -0.02680
C416        C  0.32370123  0.19710167  0.61973577     0.07000
C417        C  0.35400050  0.16084457  0.62350184    -0.02790
C418        C  0.38510065  0.15934429  0.65939567    -0.02800
C419        C  0.38699517  0.19504666  0.69035112     0.07130
C420        C  0.35848467  0.23243576  0.68453596    -0.02990
Br421      Br  0.36144567  0.28317608  0.72453778    -0.01540
Br422      Br  0.29520326  0.28852983  0.63809265    -0.01610
Br423      Br  0.42690796  0.11024403  0.66461549    -0.01570
Br424      Br  0.35719005  0.11708402  0.57633372    -0.01560
C425        C  0.60910071  0.36474644  0.79543841    -0.02680
C426        C  0.61513611  0.32481787  0.82137767     0.07000
C427        C  0.65355386  0.32220560  0.84956231    -0.02790
C428        C  0.68455770  0.35799343  0.85131813    -0.02800
C429        C  0.68137224  0.39411425  0.82069512     0.07130
C430        C  0.64351730  0.39663356  0.79219092    -0.02990
Br431      Br  0.64085203  0.43871322  0.74233935    -0.01540
Br432      Br  0.55455641  0.37836563  0.76235041    -0.01610
Br433      Br  0.73167686  0.35691232  0.89598502    -0.01570
Br434      Br  0.66773525  0.26900052  0.88352026    -0.01560
C435        C  0.60927038  0.17806494  0.64327438    -0.02680
C436        C  0.61958087  0.19364969  0.68680063     0.07000
C437        C  0.66519610  0.19990194  0.69877350    -0.02790
C438        C  0.69954438  0.19242012  0.66722456    -0.02800
C439        C  0.68863397  0.18283937  0.62191847     0.07130
C440        C  0.64380936  0.17209940  0.61130399    -0.02990
Br441      Br  0.63086481  0.14318612  0.55518157    -0.01540
Br442      Br  0.54823603  0.16364309  0.62742193    -0.01610
Br443      Br  0.76123434  0.19761047  0.68735318    -0.01570
Br444      Br  0.68177989  0.22368508  0.75708692    -0.01560
C445        C  0.54612533  0.18655888  0.03035823    -0.02680
C446        C  0.50546496  0.18644014  0.05505482     0.07000
C447        C  0.46429862  0.18579496  0.03121255    -0.02790
C448        C  0.46397669  0.18257883  0.98398509    -0.02800
C449        C  0.50453268  0.18635624  0.95913068     0.07130
C450        C  0.54554218  0.18955764  0.98320374    -0.02990
Br451      Br  0.60228265  0.20002722  0.95349633    -0.01540
Br452      Br  0.60391990  0.17968846  0.05966271    -0.01610
Br453      Br  0.40708636  0.16976500  0.95515849    -0.01570
Br454      Br  0.40714029  0.19173748  0.06185275    -0.01560
C455        C  0.32163793  0.16147838  0.35550603    -0.02680
C456        C  0.32763154  0.18276047  0.39758828     0.07000
C457        C  0.36995537  0.20135080  0.40759131    -0.02790
C458        C  0.40188564  0.20750056  0.37342208    -0.02800
C459        C  0.39639207  0.18619650  0.33106747     0.07130
C460        C  0.35722418  0.15990255  0.32422737    -0.02990
Br461      Br  0.35093175  0.12064153  0.27275637    -0.01540
Br462      Br  0.26407173  0.13754927  0.33759939    -0.01610
Br463      Br  0.44867853  0.25072905  0.38515793    -0.01570
Br464      Br  0.38545215  0.21765169  0.46861808    -0.01560
C465        C  0.64085297  0.18712931  0.39974178    -0.02680
C466        C  0.68694150  0.18132414  0.38937294     0.07000
C467        C  0.69928848  0.17159480  0.34427812    -0.02790
C468        C  0.66648029  0.17121604  0.31012217    -0.02800
C469        C  0.62093954  0.17876193  0.32084312     0.07130
C470        C  0.60822665  0.18307935  0.36606805    -0.02990
Br471      Br  0.54555899  0.18153069  0.38216618    -0.01540
Br472      Br  0.62074147  0.20417016  0.45887124    -0.01610
Br473      Br  0.68495805  0.16385809  0.24826731    -0.01570
Br474      Br  0.76147313  0.16418269  0.32694631    -0.01560
C475        C  0.52309320  0.97707171  0.15708671    -0.02680
C476        C  0.51123280  0.95321224  0.19600291     0.07000
C477        C  0.49794266  0.97616122  0.23509806    -0.02790
C478        C  0.49622098  0.02326722  0.23524110    -0.02800
C479        C  0.50677250  0.04730182  0.19578366     0.07130
C480        C  0.51999611  0.02403618  0.15659315    -0.02990
Br481      Br  0.53071332  0.05587555  0.10106698    -0.01540
Br482      Br  0.54265624  0.94515467  0.10412613    -0.01610
Br483      Br  0.48115266  0.05459528  0.29002882    -0.01570
Br484      Br  0.48300563  0.94278268  0.28858554    -0.01560
C485        C  0.51611161  0.77625468  0.03106862    -0.02680
C486        C  0.49325878  0.81077330  0.05415640     0.07000
C487        C  0.46958923  0.84378157  0.02982378    -0.02790
C488        C  0.47010005  0.84316892  0.98258000    -0.02800
C489        C  0.49310150  0.80880557  0.95953942     0.07130
C490        C  0.51590662  0.77520688  0.98383690    -0.02990
Br491      Br  0.54666414  0.72755643  0.95234038    -0.01540
Br492      Br  0.54677440  0.72965068  0.06412862    -0.01610
Br493      Br  0.44264574  0.89159696  0.94938139    -0.01570
Br494      Br  0.43843463  0.89129513  0.06106709    -0.01560
C495        C  0.60858433  0.82766302  0.36519336    -0.02680
C496        C  0.62035258  0.81333084  0.32144970     0.07000
C497        C  0.66650575  0.81163109  0.31019671    -0.02790
C498        C  0.69904326  0.82174364  0.34256814    -0.02800
C499        C  0.68733144  0.82308276  0.38836454     0.07130
C500        C  0.64197848  0.83132485  0.39878282    -0.02990
Br501      Br  0.62808086  0.85940989  0.45480159    -0.01540
Br502      Br  0.54841405  0.84766017  0.37767746    -0.01610
Br503      Br  0.75500110  0.84647315  0.32212868    -0.01570
Br504      Br  0.68754415  0.79259152  0.25197780    -0.01560
C505        C  0.35527911  0.84108666  0.32489273    -0.02680
C506        C  0.39584512  0.81660379  0.33077285     0.07000
C507        C  0.40390350  0.79606344  0.37293292    -0.02790
C508        C  0.37014185  0.79456101  0.40604628    -0.02800
C509        C  0.32785191  0.81588092  0.39880080     0.07130
C510        C  0.32210748  0.84144044  0.35891281    -0.02990
Br511      Br  0.26907133  0.87812228  0.34965360    -0.01540
Br512      Br  0.34239316  0.87291901  0.26957200    -0.01610
Br513      Br  0.38350656  0.75968761  0.45959179    -0.01570
Br514      Br  0.46173956  0.76950918  0.38698815    -0.01560
C515        C  0.78130710  0.51617402  0.98193101    -0.02680
C516        C  0.81706005  0.49570911  0.95867348     0.07000
C517        C  0.85252676  0.47582840  0.98278901    -0.02790
C518        C  0.85261919  0.47684837  0.03010575    -0.02800
C519        C  0.81670222  0.49719973  0.05364669     0.07130
C520        C  0.78089376  0.51670472  0.02925441    -0.02990
Br521      Br  0.73022003  0.54286718  0.06033512    -0.01540
Br522      Br  0.73246670  0.54283960  0.94869023    -0.01610
Br523      Br  0.90378466  0.45321403  0.06220919    -0.01570
Br524      Br  0.90203479  0.44892008  0.95065007    -0.01560
C525        C  0.84438479  0.37970545  0.35085638    -0.02680
C526        C  0.80364096  0.39458196  0.33182294     0.07000
C527        C  0.76310059  0.37401601  0.34465463    -0.02790
C528        C  0.76315131  0.33841993  0.37530819    -0.02800
C529        C  0.80358569  0.32379870  0.39486282     0.07130
C530        C  0.84431916  0.34454151  0.38278605    -0.02990
Br531      Br  0.89944642  0.32526347  0.41056139    -0.01540
Br532      Br  0.89975751  0.40809911  0.33366998    -0.01610
Br533      Br  0.70755870  0.30769019  0.38809832    -0.01570
Br534      Br  0.70688407  0.39290551  0.31908572    -0.01560
C535        C  0.69192607  0.34718533  0.17846973    -0.02680
C536        C  0.68306035  0.38992155  0.19766901     0.07000
C537        C  0.63913584  0.39843826  0.21459395    -0.02790
C538        C  0.60493831  0.36613506  0.21076210    -0.02800
C539        C  0.61468400  0.32223709  0.19495304     0.07130
C540        C  0.65808210  0.31409137  0.17641712    -0.02990
Br541      Br  0.67302894  0.25816662  0.14640932    -0.01540
Br542      Br  0.75205376  0.33007013  0.15991714    -0.01610
Br543      Br  0.54443750  0.38482794  0.22654054    -0.01570
Br544      Br  0.62427742  0.45224730  0.24805304    -0.01560
C545        C  0.69319680  0.65763123  0.16355420    -0.02680
C546        C  0.68427164  0.61386623  0.17991186     0.07000
C547        C  0.63913131  0.60204821  0.18670208    -0.02790
C548        C  0.60612995  0.63526756  0.19210680    -0.02800
C549        C  0.61628634  0.68061625  0.18278834     0.07130
C550        C  0.65904217  0.69066009  0.16414524    -0.02990
Br551      Br  0.67283032  0.74947060  0.14038948    -0.01540
Br552      Br  0.75050252  0.67274680  0.13703810    -0.01610
Br553      Br  0.54750921  0.61692443  0.21244742    -0.01570
Br554      Br  0.62086633  0.54088253  0.17899135    -0.01560
C555        C  0.82948223  0.60933758  0.36397061    -0.02680
C556        C  0.82265618  0.62144496  0.31867673     0.07000
C557        C  0.82149143  0.66713423  0.30683564    -0.02790
C558        C  0.82414773  0.70023494  0.34029437    -0.02800
C559        C  0.82414680  0.68815646  0.38610215     0.07130
C560        C  0.83036607  0.64273986  0.39757485    -0.02990
Br561      Br  0.84530515  0.62727982  0.45834740    -0.01540
Br562      Br  0.83842314  0.54720757  0.37964947    -0.01610
Br563      Br  0.82887500  0.76184087  0.32253850    -0.01570
Br564      Br  0.81146829  0.68486927  0.24528680    -0.01560
C565        C  0.02829202  0.53917436  0.19555215    -0.02680
C566        C  0.05346324  0.49872759  0.19753447     0.07000
C567        C  0.02959732  0.45752486  0.20038227    -0.02790
C568        C  0.98221316  0.45686823  0.19857665    -0.02800
C569        C  0.95719909  0.49749021  0.19915905     0.07130
C570        C  0.98120805  0.53864336  0.20004579    -0.02990
Br571      Br  0.95138340  0.59574369  0.21019531    -0.01540
Br572      Br  0.05633601  0.59634249  0.18238598    -0.01610
Br573      Br  0.95312353  0.39902241  0.19305253    -0.01570
Br574      Br  0.06023748  0.40049190  0.20761622    -0.01560
C575        C  0.23338414  0.50434720  0.02878313    -0.02680
C576        C  0.19231571  0.50215943  0.05209514     0.07000
C577        C  0.15151582  0.50261652  0.02841232    -0.02790
C578        C  0.15178239  0.50441228  0.98128018    -0.02800
C579        C  0.19282404  0.50663704  0.95790941     0.07130
C580        C  0.23363855  0.50671925  0.98160736    -0.02990
Br581      Br  0.28967178  0.50864285  0.94919046    -0.01540
Br582      Br  0.28907657  0.50420646  0.06163447    -0.01610
Br583      Br  0.09599167  0.50283175  0.94860083    -0.01570
Br584      Br  0.09540206  0.49963070  0.06070338    -0.01560
C585        C  0.31198964  0.33518110  0.20188787    -0.02680
C586        C  0.32378171  0.37878372  0.18689383     0.07000
C587        C  0.36705263  0.38581916  0.16906255    -0.02790
C588        C  0.39956207  0.35143459  0.17073246    -0.02800
C589        C  0.38897742  0.30999248  0.19040181     0.07130
C590        C  0.34473636  0.30127707  0.20414972    -0.02990
Br591      Br  0.32923728  0.24305413  0.22779199    -0.01540
Br592      Br  0.25172289  0.32088637  0.22144253    -0.01610
Br593      Br  0.45803822  0.36007141  0.14463363    -0.01570
Br594      Br  0.38074965  0.44086549  0.13897408    -0.01560
C595        C  0.24503827  0.33391947  0.37213614    -0.02680
C596        C  0.20390859  0.31877081  0.38953472     0.07000
C597        C  0.16343400  0.33686774  0.37310845    -0.02790
C598        C  0.16415362  0.37010336  0.33917353    -0.02800
C599        C  0.20546769  0.38431388  0.32059101     0.07130
C600        C  0.24603415  0.36589016  0.33765232    -0.02990
Br601      Br  0.30429031  0.38205064  0.31342025    -0.01540
Br602      Br  0.30095699  0.31024028  0.39487627    -0.01610
Br603      Br  0.10885724  0.39833811  0.32109606    -0.01570
Br604      Br  0.10735490  0.31699252  0.39838106    -0.01560
C605        C  0.36470194  0.61197416  0.16958786    -0.02680
C606        C  0.32105280  0.61943169  0.18614981     0.07000
C607        C  0.30988460  0.66188917  0.20390578    -0.02790
C608        C  0.34316564  0.69478279  0.20928551    -0.02800
C609        C  0.38760698  0.68652279  0.19452406     0.07130
C610        C  0.39743501  0.64588510  0.17237232    -0.02990
Br611      Br  0.45444413  0.63786761  0.14290979    -0.01540
Br612      Br  0.37936314  0.55577437  0.14206122    -0.01610
Br613      Br  0.32760915  0.74967626  0.24024236    -0.01570
Br614      Br  0.24937859  0.67462364  0.22361719    -0.01560
C615        C  0.16544339  0.66619100  0.36739548    -0.02680
C616        C  0.20535335  0.68178140  0.38797863     0.07000
C617        C  0.24698777  0.66282820  0.37411321    -0.02790
C618        C  0.24827848  0.62691840  0.34359584    -0.02800
C619        C  0.20827191  0.61008802  0.32496494     0.07130
C620        C  0.16693047  0.63015332  0.33658888    -0.02990
Br621      Br  0.11191347  0.60755989  0.31086404    -0.01540
Br622      Br  0.10848358  0.69456728  0.37874815    -0.01610
Br623      Br  0.30607340  0.60372982  0.32436347    -0.01570
Br624      Br  0.30383644  0.68893845  0.39157695    -0.01560
loop_ 
_geom_bond_atom_site_label_1 
_geom_bond_atom_site_label_2 
_geom_bond_distance 
_geom_bond_site_symmetry_2 
_ccdc_geom_bond_type 
Fe1          O17   2.069       .  S
Fe1           O7   2.057       .  S
Fe1          O14   2.070       .  S
Fe1           O6   2.074       .  S
Fe1          O12   1.968       .  S
Fe2           O5   2.091       .  S
Fe2           O9   2.066       .  S
Fe2          O13   2.059       .  S
Fe2          O18   2.048       .  S
Fe2          O12   1.975       .  S
Fe3          O21   2.050       .  S
Fe3           O8   2.086       .  S
Fe3          O15   2.067       .  S
Fe3           O4   2.072       .  S
Fe3          O12   1.960       .  S
O4           C11   1.271       .  A
O5           C19   1.277       .  A
O6           C11   1.272       .  A
O7           C10   1.266       .  A
O8           C20   1.273       .  A
O9           C22   1.264       .  A
C10          O15   1.269       .  A
C10         C619   1.482       .  S
C11         C606   1.483       .  S
O13          C16   1.269       .  A
O14          C16   1.270       .  A
C16         C576   1.467       .  S
O17          C22   1.266       .  A
O18          C20   1.263       .  A
C19          O21   1.268       .  A
C19         C599   1.491       .  S
C20         C586   1.488       .  S
C22         C566   1.507       .  S
Fe23         O39   2.075       .  S
Fe23         O29   2.080       .  S
Fe23         O36   2.086       .  S
Fe23         O28   2.078       .  S
Fe23         O34   1.956       .  S
Fe24         O27   2.070       .  S
Fe24         O31   2.069       .  S
Fe24         O35   2.052       .  S
Fe24         O40   2.067       .  S
Fe24         O34   1.961       .  S
Fe25         O43   2.069       .  S
Fe25         O30   2.076       .  S
Fe25         O37   2.068       .  S
Fe25         O26   2.063       .  S
Fe25         O34   1.956       .  S
O26          C33   1.266       .  A
O27          C41   1.271       .  A
O28          C33   1.271       .  A
O29          C32   1.271       .  A
O30          C42   1.273       .  A
O31          C44   1.268       .  A
C32          O37   1.270       .  A
C32         C526   1.479       .  S
C33         C536   1.509       .  S
O35          C38   1.266       .  A
O36          C38   1.272       .  A
C38         C519   1.485       .  S
O39          C44   1.270       .  A
O40          C42   1.267       .  A
C41          O43   1.269       .  A
C41         C556   1.479       .  S
C42         C546   1.503       .  S
C44         C569   1.507       .  S
Fe45         O61   2.064       .  S
Fe45         O51   2.064       .  S
Fe45         O58   2.056       .  S
Fe45         O50   2.067       .  S
Fe45         O56   1.962       .  S
Fe46         O49   2.056       .  S
Fe46         O53   2.068       .  S
Fe46         O57   2.055       .  S
Fe46         O62   2.070       .  S
Fe46         O56   1.959       .  S
Fe47         O65   2.077       .  S
Fe47         O52   2.087       .  S
Fe47         O59   2.081       .  S
Fe47         O48   2.074       .  S
Fe47         O56   1.966       .  S
O48          C55   1.269       .  A
O49          C63   1.263       .  A
O50          C55   1.266       .  A
O51          C54   1.269       .  A
O52          C64   1.276       .  A
O53          C66   1.270       .  A
C54          O59   1.275       .  A
C54         C609   1.486       .  S
C55         C506   1.504       .  S
O57          C60   1.265       .  A
O58          C60   1.265       .  A
C60         C476   1.464       .  S
O61          C66   1.269       .  A
O62          C64   1.272       .  A
C63          O65   1.269       .  A
C63         C549   1.495       .  S
C64         C496   1.495       .  S
C66         C486   1.475       .  S
Fe67         O83   2.049       .  S
Fe67         O73   2.079       .  S
Fe67         O80   2.084       .  S
Fe67         O72   2.055       .  S
Fe67         O78   1.945       .  S
Fe68         O71   2.057       .  S
Fe68         O75   2.076       .  S
Fe68         O79   2.054       .  S
Fe68         O84   2.073       .  S
Fe68         O78   1.933       .  S
Fe69         O87   2.083       .  S
Fe69         O74   2.061       .  S
Fe69         O81   2.064       .  S
Fe69         O70   2.091       .  S
Fe69         O78   1.928       .  S
O70          C77   1.276       .  A
O71          C85   1.269       .  A
O72          C77   1.270       .  A
O73          C76   1.269       .  A
O74          C86   1.267       .  A
O75          C88   1.272       .  A
C76          O81   1.266       .  A
C76         C459   1.503       .  S
C77         C589   1.472       .  S
O79          C82   1.266       .  A
O80          C82   1.270       .  A
C82         C446   1.495       .  S
O83          C88   1.268       .  A
O84          C86   1.267       .  A
C85          O87   1.275       .  A
C85         C469   1.483       .  S
C86         C539   1.512       .  S
C88         C479   1.472       .  S
Fe89        O105   2.069       .  S
Fe89         O95   2.045       .  S
Fe89        O102   2.069       .  S
Fe89         O94   2.103       .  S
Fe89        O100   1.956       .  S
Fe90         O93   2.090       .  S
Fe90         O97   2.062       .  S
Fe90        O101   2.056       .  S
Fe90        O106   2.029       .  S
Fe90        O100   1.955       .  S
Fe91        O109   2.049       .  S
Fe91         O96   2.100       .  S
Fe91        O103   2.085       .  S
Fe91         O92   2.040       .  S
Fe91        O100   1.959       .  S
O92          C99   1.262       .  A
O93         C107   1.274       .  A
O94          C99   1.276       .  A
O95          C98   1.264       .  A
O96         C108   1.276       .  A
O97         C110   1.266       .  A
C98         O103   1.274       .  A
C98         C436   1.489       .  S
C99         C426   1.512       .  S
O101        C104   1.263       .  A
O102        C104   1.265       .  A
C104        C449   1.502       .  S
O105        C110   1.269       .  A
O106        C108   1.258       .  A
C107        O109   1.267       .  A
C107        C419   1.478       .  S
C108        C406   1.502       .  S
C110        C399   1.505       .  S
Fe111       O127   2.069       .  S
Fe111       O117   2.089       .  S
Fe111       O124   2.058       .  S
Fe111       O116   2.064       .  S
Fe111       O122   1.967       .  S
Fe112       O115   2.085       .  S
Fe112       O119   2.062       .  S
Fe112       O123   2.081       .  S
Fe112       O128   2.065       .  S
Fe112       O122   1.962       .  S
Fe113       O131   2.056       .  S
Fe113       O118   2.065       .  S
Fe113       O125   2.053       .  S
Fe113       O114   2.082       .  S
Fe113       O122   1.958       .  S
O114        C121   1.274       .  A
O115        C129   1.272       .  A
O116        C121   1.268       .  A
O117        C120   1.273       .  A
O118        C130   1.267       .  A
O119        C132   1.267       .  A
C120        O125   1.266       .  A
C120        C389   1.484       .  S
C121        C439   1.496       .  S
O123        C126   1.273       .  A
O124        C126   1.268       .  A
C126        C366   1.487       .  S
O127        C132   1.268       .  A
O128        C130   1.267       .  A
C129        O131   1.268       .  A
C129        C529   1.476       .  S
C130        C466   1.494       .  S
C132        C376   1.494       .  S
Fe133       O149   2.058       .  S
Fe133       O139   2.089       .  S
Fe133       O146   2.084       .  S
Fe133       O138   2.062       .  S
Fe133       O144   1.954       .  S
Fe134       O137   2.065       .  S
Fe134       O141   2.086       .  S
Fe134       O145   2.062       .  S
Fe134       O150   2.097       .  S
Fe134       O144   1.955       .  S
Fe135       O153   2.078       .  S
Fe135       O140   2.061       .  S
Fe135       O147   2.057       .  S
Fe135       O136   2.075       .  S
Fe135       O144   1.949       .  S
O136        C143   1.273       .  A
O137        C151   1.268       .  A
O138        C143   1.269       .  A
O139        C142   1.270       .  A
O140        C152   1.268       .  A
O141        C154   1.275       .  A
C142        O147   1.265       .  A
C142        C596   1.478       .  S
C143        C456   1.494       .  S
O145        C148   1.268       .  A
O146        C148   1.271       .  A
C148        C346   1.500       .  S
O149        C154   1.270       .  A
O150        C152   1.276       .  A
C151        O153   1.272       .  A
C151        C359   1.488       .  S
C152        C416   1.480       .  S
C154        C379   1.490       .  S
Fe155       O171   2.050       .  S
Fe155       O161   2.078       .  S
Fe155       O168   2.049       .  S
Fe155       O160   2.060       .  S
Fe155       O166   1.976       .  S
Fe156       O159   2.060       .  S
Fe156       O163   2.077       .  S
Fe156       O167   2.070       .  S
Fe156       O172   2.090       .  S
Fe156       O166   1.982       .  S
Fe157       O175   2.066       .  S
Fe157       O162   2.054       .  S
Fe157       O169   2.067       .  S
Fe157       O158   2.062       .  S
Fe157       O166   1.970       .  S
O158        C165   1.267       .  A
O159        C173   1.266       .  A
O160        C165   1.265       .  A
O161        C164   1.271       .  A
O162        C174   1.265       .  A
O163        C176   1.271       .  A
C164        O169   1.269       .  A
C164        C356   1.496       .  S
C165        C409   1.488       .  S
O167        C170   1.268       .  A
O168        C170   1.264       .  A
C170        C579   1.467       .  S
O171        C176   1.267       .  A
O172        C174   1.273       .  A
C173        O175   1.270       .  A
C173        C336   1.478       .  S
C174        C326   1.510       .  S
C176        C319   1.494       .  S
Fe177       O193   2.070       .  S
Fe177       O183   2.093       .  S
Fe177       O190   2.086       .  S
Fe177       O182   2.078       .  S
Fe177       O188   1.974       .  S
Fe178       O181   2.065       .  S
Fe178       O185   2.075       .  S
Fe178       O189   2.047       .  S
Fe178       O194   2.088       .  S
Fe178       O188   1.972       .  S
Fe179       O197   2.054       .  S
Fe179       O184   2.050       .  S
Fe179       O191   2.050       .  S
Fe179       O180   2.058       .  S
Fe179       O188   1.941       .  S
O180        C187   1.266       .  A
O181        C195   1.265       .  A
O182        C187   1.271       .  A
O183        C186   1.273       .  A
O184        C196   1.269       .  A
O185        C198   1.272       .  A
C186        O191   1.263       .  A
C186        C509   1.508       .  S
C187        C616   1.500       .  S
O189        C192   1.265       .  A
O190        C192   1.274       .  A
C192        C296   1.471       .  S
O193        C198   1.272       .  A
O194        C196   1.274       .  A
C195        O197   1.264       .  A
C195        C309   1.478       .  S
C196        C339   1.473       .  S
C198        C349   1.480       .  S
Fe199       O215   2.064       .  S
Fe199       O205   2.059       .  S
Fe199       O212   2.054       .  S
Fe199       O204   2.069       .  S
Fe199       O210   1.967       .  S
Fe200       O203   2.077       .  S
Fe200       O207   2.059       .  S
Fe200       O211   2.080       .  S
Fe200       O216   2.053       .  S
Fe200       O210   1.965       .  S
Fe201       O219   2.085       .  S
Fe201       O206   2.097       .  S
Fe201       O213   2.099       .  S
Fe201       O202   2.105       .  S
Fe201       O210   1.966       .  S
O202        C209   1.278       .  A
O203        C217   1.270       .  A
O204        C209   1.269       .  A
O205        C208   1.266       .  A
O206        C218   1.274       .  A
O207        C220   1.267       .  A
C208        O213   1.275       .  A
C208        C559   1.490       .  S
C209        C499   1.504       .  S
O211        C214   1.271       .  A
O212        C214   1.267       .  A
C214        C369   1.477       .  S
O215        C220   1.267       .  A
O216        C218   1.267       .  A
C217        O219   1.273       .  A
C217        C276   1.521       .  S
C218        C286   1.489       .  S
C220        C299   1.467       .  S
Fe221       O237   2.079       .  S
Fe221       O227   2.056       .  S
Fe221       O234   2.066       .  S
Fe221       O226   2.091       .  S
Fe221       O232   1.963       .  S
Fe222       O225   2.079       .  S
Fe222       O229   2.049       .  S
Fe222       O233   2.058       .  S
Fe222       O238   2.059       .  S
Fe222       O232   1.962       .  S
Fe223       O241   2.075       .  S
Fe223       O228   2.081       .  S
Fe223       O235   2.099       .  S
Fe223       O224   2.063       .  S
Fe223       O232   1.954       .  S
O224        C231   1.271       .  A
O225        C239   1.271       .  A
O226        C231   1.275       .  A
O227        C230   1.265       .  A
O228        C240   1.270       .  A
O229        C242   1.265       .  A
C230        O235   1.273       .  A
C230        C306   1.491       .  S
C231        C329   1.500       .  S
O233        C236   1.265       .  A
O234        C236   1.268       .  A
C236        C489   1.473       .  S
O237        C242   1.271       .  A
O238        C240   1.264       .  A
C239        O241   1.276       .  A
C239        C289   1.497       .  S
C240        C269   1.493       .  S
C242        C396   1.511       .  S
Fe243       O259   2.058       .  S
Fe243       O249   2.091       .  S
Fe243       O256   2.082       .  S
Fe243       O248   2.070       .  S
Fe243       O254   1.942       .  S
Fe244       O247   2.079       .  S
Fe244       O251   2.080       .  S
Fe244       O255   2.064       .  S
Fe244       O260   2.089       .  S
Fe244       O254   1.960       .  S
Fe245       O263   2.083       .  S
Fe245       O250   2.058       .  S
Fe245       O257   2.061       .  S
Fe245       O246   2.067       .  S
Fe245       O254   1.940       .  S
O246        C253   1.267       .  A
O247        C261   1.270       .  A
O248        C253   1.267       .  A
O249        C252   1.274       .  A
O250        C262   1.266       .  A
O251        C264   1.272       .  A
C252        O257   1.271       .  A
C252        C279   1.516       .  S
C253        C266   1.493       .  S
O255        C258   1.270       .  A
O256        C258   1.273       .  A
C258        C516   1.477       .  S
O259        C264   1.269       .  A
O260        C262   1.273       .  A
C261        O263   1.273       .  A
C261        C386   1.487       .  S
C262        C429   1.495       .  S
C264        C316   1.487       .  S
C265        C266   1.415       .  A
C265        C270   1.407       .  A
C265       Br272   1.931       .  S
C266        C267   1.416       .  A
C267        C268   1.413       .  A
C267       Br274   1.934       .  S
C268        C269   1.418       .  A
C268       Br273   1.933       .  S
C269        C270   1.413       .  A
C270       Br271   1.935       .  S
C275        C276   1.427       .  A
C275        C280   1.416       .  A
C275       Br282   1.943       .  S
C276        C277   1.425       .  A
C277        C278   1.415       .  A
C277       Br284   1.934       .  S
C278        C279   1.420       .  A
C278       Br283   1.941       .  S
C279        C280   1.424       .  A
C280       Br281   1.943       .  S
C285        C286   1.405       .  A
C285        C290   1.401       .  A
C285       Br292   1.910       .  S
C286        C287   1.417       .  A
C287        C288   1.414       .  A
C287       Br294   1.933       .  S
C288        C289   1.419       .  A
C288       Br293   1.930       .  S
C289        C290   1.403       .  A
C290       Br291   1.914       .  S
C295        C296   1.407       .  A
C295        C300   1.406   1_455  A
C295       Br302   1.922       .  S
C296        C297   1.410       .  A
C297        C298   1.405   1_455  A
C297       Br304   1.930       .  S
C298        C299   1.407       .  A
C298       Br303   1.930       .  S
C299        C300   1.408       .  A
C300       Br301   1.930       .  S
C305        C306   1.417       .  A
C305        C310   1.411       .  A
C305       Br312   1.932       .  S
C306        C307   1.410       .  A
C307        C308   1.406       .  A
C307       Br314   1.909       .  S
C308        C309   1.405       .  A
C308       Br313   1.930       .  S
C309        C310   1.410       .  A
C310       Br311   1.932       .  S
C315        C316   1.413       .  A
C315        C320   1.408   1_655  A
C315       Br322   1.933       .  S
C316        C317   1.414       .  A
C317        C318   1.410   1_655  A
C317       Br324   1.937       .  S
C318        C319   1.419       .  A
C318       Br323   1.937       .  S
C319        C320   1.420       .  A
C320       Br321   1.939       .  S
C325        C326   1.420       .  A
C325        C330   1.417       .  A
C325       Br332   1.935       .  S
C326        C327   1.425       .  A
C327        C328   1.407       .  A
C327       Br334   1.944       .  S
C328        C329   1.417       .  A
C328       Br333   1.943       .  S
C329        C330   1.418       .  A
C330       Br331   1.935       .  S
C335        C336   1.413       .  A
C335        C340   1.415       .  A
C335       Br342   1.927       .  S
C336        C337   1.409       .  A
C337        C338   1.397       .  A
C337       Br344   1.927       .  S
C338        C339   1.409       .  A
C338       Br343   1.934       .  S
C339        C340   1.410       .  A
C340       Br341   1.927       .  S
C345        C346   1.419       .  A
C345        C350   1.409   1_545  A
C345       Br352   1.925       .  S
C346        C347   1.420       .  A
C347        C348   1.411   1_545  A
C347       Br354   1.930       .  S
C348        C349   1.408       .  A
C348       Br353   1.933       .  S
C349        C350   1.408       .  A
C350       Br351   1.934       .  S
C355        C356   1.416       .  A
C355        C360   1.413       .  A
C355       Br362   1.932       .  S
C356        C357   1.418       .  A
C357        C358   1.409       .  A
C357       Br364   1.930       .  S
C358        C359   1.413       .  A
C358       Br363   1.938       .  S
C359        C360   1.411       .  A
C360       Br361   1.930       .  S
C365        C366   1.417       .  A
C365        C370   1.410   1_545  A
C365       Br372   1.933       .  S
C366        C367   1.414       .  A
C367        C368   1.408   1_545  A
C367       Br374   1.930       .  S
C368        C369   1.410       .  A
C368       Br373   1.933       .  S
C369        C370   1.408       .  A
C370       Br371   1.932       .  S
C375        C376   1.418       .  A
C375        C380   1.408   1_655  A
C375       Br382   1.936       .  S
C376        C377   1.419       .  A
C377        C378   1.410   1_655  A
C377       Br384   1.938       .  S
C378        C379   1.416       .  A
C378       Br383   1.937       .  S
C379        C380   1.415       .  A
C380       Br381   1.937       .  S
C385        C386   1.406       .  A
C385        C390   1.395       .  A
C385       Br392   1.918       .  S
C386        C387   1.413       .  A
C387        C388   1.420       .  A
C387       Br394   1.924       .  S
C388        C389   1.414       .  A
C388       Br393   1.924       .  S
C389        C390   1.410       .  A
C390       Br391   1.933       .  S
C395        C396   1.428       .  A
C395        C400   1.412   1_565  A
C395       Br402   1.945       .  S
C396        C397   1.425       .  A
C397        C398   1.411   1_565  A
C397       Br404   1.943       .  S
C398        C399   1.422       .  A
C398       Br403   1.945       .  S
C399        C400   1.420       .  A
C400       Br401   1.943       .  S
C405        C406   1.413       .  A
C405        C410   1.409       .  A
C405       Br412   1.924       .  S
C406        C407   1.431       .  A
C407        C408   1.408       .  A
C407       Br414   1.943       .  S
C408        C409   1.410       .  A
C408       Br413   1.936       .  S
C409        C410   1.410       .  A
C410       Br411   1.929       .  S
C415        C416   1.406       .  A
C415        C420   1.398       .  A
C415       Br422   1.926       .  S
C416        C417   1.411       .  A
C417        C418   1.416       .  A
C417       Br424   1.920       .  S
C418        C419   1.410       .  A
C418       Br423   1.926       .  S
C419        C420   1.411       .  A
C420       Br421   1.928       .  S
C425        C426   1.430       .  A
C425        C430   1.405       .  A
C425       Br432   1.944       .  S
C426        C427   1.423       .  A
C427        C428   1.415       .  A
C427       Br434   1.928       .  S
C428        C429   1.415       .  A
C428       Br433   1.936       .  S
C429        C430   1.415       .  A
C430       Br431   1.946       .  S
C435        C436   1.412       .  A
C435        C440   1.413       .  A
C435       Br442   1.930       .  S
C436        C437   1.419       .  A
C437        C438   1.406       .  A
C437       Br444   1.941       .  S
C438        C439   1.418       .  A
C438       Br443   1.942       .  S
C439        C440   1.411       .  A
C440       Br441   1.921       .  S
C445        C446   1.417       .  A
C445        C450   1.407   1_554  A
C445       Br452   1.943       .  S
C446        C447   1.419       .  A
C447        C448   1.410   1_554  A
C447       Br454   1.940       .  S
C448        C449   1.422       .  A
C448       Br453   1.941       .  S
C449        C450   1.421       .  A
C450       Br451   1.935       .  S
C455        C456   1.417       .  A
C455        C460   1.412       .  A
C455       Br462   1.936       .  S
C456        C457   1.412       .  A
C457        C458   1.405       .  A
C457       Br464   1.938       .  S
C458        C459   1.422       .  A
C458       Br463   1.935       .  S
C459        C460   1.424       .  A
C460       Br461   1.939       .  S
C465        C466   1.418       .  A
C465        C470   1.403       .  A
C465       Br472   1.927       .  S
C466        C467   1.422       .  A
C467        C468   1.412       .  A
C467       Br474   1.936       .  S
C468        C469   1.412       .  A
C468       Br473   1.935       .  S
C469        C470   1.405       .  A
C470       Br471   1.929       .  S
C475        C476   1.406       .  A
C475        C480   1.404   1_565  A
C475       Br482   1.931       .  S
C476        C477   1.407       .  A
C477        C478   1.406   1_565  A
C477       Br484   1.931       .  S
C478        C479   1.412       .  A
C478       Br483   1.932       .  S
C479        C480   1.413       .  A
C480       Br481   1.934       .  S
C485        C486   1.411       .  A
C485        C490   1.407   1_554  A
C485       Br492   1.931       .  S
C486        C487   1.410       .  A
C487        C488   1.407   1_554  A
C487       Br494   1.930       .  S
C488        C489   1.409       .  A
C488       Br493   1.931       .  S
C489        C490   1.409       .  A
C490       Br491   1.931       .  S
C495        C496   1.415       .  A
C495        C500   1.417       .  A
C495       Br502   1.924       .  S
C496        C497   1.417       .  A
C497        C498   1.402       .  A
C497       Br504   1.928       .  S
C498        C499   1.408       .  A
C498       Br503   1.925       .  S
C499        C500   1.408       .  A
C500       Br501   1.911       .  S
C505        C506   1.422       .  A
C505        C510   1.415       .  A
C505       Br512   1.940       .  S
C506        C507   1.418       .  A
C507        C508   1.409       .  A
C507       Br514   1.941       .  S
C508        C509   1.427       .  A
C508       Br513   1.945       .  S
C509        C510   1.422       .  A
C510       Br511   1.940       .  S
C515        C516   1.408       .  A
C515        C520   1.410   1_556  A
C515       Br522   1.931       .  S
C516        C517   1.408       .  A
C517        C518   1.410   1_556  A
C517       Br524   1.931       .  S
C518        C519   1.415       .  A
C518       Br523   1.932       .  S
C519        C520   1.415       .  A
C520       Br521   1.933       .  S
C525        C526   1.411       .  A
C525        C530   1.416       .  A
C525       Br532   1.927       .  S
C526        C527   1.410       .  A
C527        C528   1.400       .  A
C527       Br534   1.924       .  S
C528        C529   1.407       .  A
C528       Br533   1.934       .  S
C529        C530   1.411       .  A
C530       Br531   1.927       .  S
C535        C536   1.421       .  A
C535        C540   1.415       .  A
C535       Br542   1.942       .  S
C536        C537   1.425       .  A
C537        C538   1.410       .  A
C537       Br544   1.939       .  S
C538        C539   1.420       .  A
C538       Br543   1.943       .  S
C539        C540   1.426       .  A
C540       Br541   1.943       .  S
C545        C546   1.419       .  A
C545        C550   1.415       .  A
C545       Br552   1.936       .  S
C546        C547   1.407       .  A
C547        C548   1.403       .  A
C547       Br554   1.919       .  S
C548        C549   1.414       .  A
C548       Br553   1.930       .  S
C549        C550   1.423       .  A
C550       Br551   1.937       .  S
C555        C556   1.411       .  A
C555        C560   1.412       .  A
C555       Br562   1.929       .  S
C556        C557   1.408       .  A
C557        C558   1.405       .  A
C557       Br564   1.931       .  S
C558        C559   1.411       .  A
C558       Br563   1.918       .  S
C559        C560   1.409       .  A
C560       Br561   1.920       .  S
C565        C566   1.420       .  A
C565        C570   1.410   1_455  A
C565       Br572   1.941       .  S
C566        C567   1.425       .  A
C567        C568   1.414   1_455  A
C567       Br574   1.940       .  S
C568        C569   1.421       .  A
C568       Br573   1.941       .  S
C569        C570   1.423       .  A
C570       Br571   1.942       .  S
C575        C576   1.409       .  A
C575        C580   1.407   1_554  A
C575       Br582   1.928       .  S
C576        C577   1.407       .  A
C577        C578   1.405   1_554  A
C577       Br584   1.931       .  S
C578        C579   1.409       .  A
C578       Br583   1.929       .  S
C579        C580   1.407       .  A
C580       Br581   1.930       .  S
C585        C586   1.420       .  A
C585        C590   1.405       .  A
C585       Br592   1.937       .  S
C586        C587   1.411       .  A
C587        C588   1.410       .  A
C587       Br594   1.915       .  S
C588        C589   1.405       .  A
C588       Br593   1.926       .  S
C589        C590   1.406       .  A
C590       Br591   1.931       .  S
C595        C596   1.407       .  A
C595        C600   1.402       .  A
C595       Br602   1.932       .  S
C596        C597   1.408       .  A
C597        C598   1.416       .  A
C597       Br604   1.928       .  S
C598        C599   1.416       .  A
C598       Br603   1.926       .  S
C599        C600   1.421       .  A
C600       Br601   1.942       .  S
C605        C606   1.408       .  A
C605        C610   1.410       .  A
C605       Br612   1.915       .  S
C606        C607   1.411       .  A
C607        C608   1.407       .  A
C607       Br614   1.933       .  S
C608        C609   1.416       .  A
C608       Br613   1.934       .  S
C609        C610   1.410       .  A
C610       Br611   1.926       .  S
C615        C616   1.419       .  A
C615        C620   1.414       .  A
C615       Br622   1.925       .  S
C616        C617   1.423       .  A
C617        C618   1.405       .  A
C617       Br624   1.939       .  S
C618        C619   1.410       .  A
C618       Br623   1.941       .  S
C619        C620   1.411       .  A
C620       Br621   1.934       .  S
