geometry optimzed in LAMMPS
_audit_creation_date              2020-11-30 
_audit_creation_method            'lammps2cif' 
_symmetry_space_group_name_H-M    'P1' 
_symmetry_Int_Tables_number       1 
_symmetry_cell_setting            triclinic 
loop_ 
_symmetry_equiv_pos_as_xyz 
  x,y,z 
_cell_length_a                    26.22959609 
_cell_length_b                    63.54861634512479 
_cell_length_c                    64.84262314122651 
_cell_angle_alpha                 90.0729080425344 
_cell_angle_beta                  90.37479625561798 
_cell_angle_gamma                 89.38823679120839 
loop_ 
_atom_site_label 
_atom_site_type_symbol 
_atom_site_fract_x 
_atom_site_fract_y 
_atom_site_fract_z 
_atom_site_charge 
C1          C  0.57026566  0.70959514  0.67650970     0.03600
C2          C  0.61095367  0.72377282  0.67691703    -0.12500
C3          C  0.61231097  0.74022036  0.69143859     0.01100
C4          C  0.57139032  0.74271114  0.70518347    -0.11000
C5          C  0.52995202  0.72877591  0.70491899     0.03600
C6          C  0.53032332  0.71205499  0.69066645    -0.10500
H7          H  0.64195637  0.72179064  0.66610500     0.09200
H8          H  0.57246129  0.75523283  0.71649346     0.06700
H9          H  0.49977733  0.70071139  0.69065446     0.06600
C10         C  0.34436672  0.71162560  0.79859784     0.03600
C11         C  0.30072652  0.72456206  0.79881108    -0.12500
C12         C  0.29332645  0.74029141  0.78385044     0.01100
C13         C  0.33057064  0.74312580  0.76856945    -0.11000
C14         C  0.37463616  0.73031450  0.76827520     0.03600
C15         C  0.38102983  0.71460728  0.78326545    -0.10500
H16         H  0.27212843  0.72227522  0.81059201     0.09200
H17         H  0.32518999  0.75514923  0.75692639     0.06700
H18         H  0.41445670  0.70446158  0.78283193     0.06600
C19         C  0.06121161  0.81874560  0.80980071     0.03600
C20         C  0.10682880  0.80727207  0.80769345    -0.12500
C21         C  0.11384347  0.79382075  0.79072314     0.01100
C22         C  0.07443098  0.79181321  0.77604924    -0.11000
C23         C  0.02853705  0.80327716  0.77800616     0.03600
C24         C  0.02262992  0.81690566  0.79488622    -0.10500
H25         H  0.13617297  0.80845267  0.81947729     0.09200
H26         H  0.07948450  0.78120123  0.76313681     0.06700
H27         H  0.98817105  0.82634368  0.79638940     0.06600
C28         C  0.83563677  0.82346837  0.68512268     0.03600
C29         C  0.79506723  0.80934888  0.68435479    -0.12500
C30         C  0.79181218  0.79275404  0.69849703     0.01100
C31         C  0.83066651  0.79013504  0.71341765    -0.11000
C32         C  0.87218321  0.80408132  0.71419179     0.03600
C33         C  0.87376289  0.82088016  0.70013739    -0.10500
H34         H  0.76571482  0.81134437  0.67266358     0.09200
H35         H  0.82832370  0.77749361  0.72452316     0.06700
H36         H  0.90484990  0.83198678  0.70082064     0.06600
N37         N  0.60392246  0.59057046  0.44329436    -0.26800
N38         N  0.62341239  0.57140983  0.44515846    -0.34700
C39         C  0.63673120  0.56806351  0.46490061     0.01500
C40         C  0.62509474  0.58596245  0.47613429     0.07600
C41         C  0.60451194  0.60002054  0.46193416    -0.05500
H42         H  0.65110912  0.55323311  0.47079924     0.08200
H43         H  0.58881674  0.61547305  0.46507036     0.09400
Cu44       Cu  0.62298196  0.54920886  0.42186380     0.44200
Cu45       Cu  0.57447422  0.60152806  0.41542858     0.42000
Cu46       Cu  0.56151224  0.56140256  0.37420560     0.43900
N47         N  0.60189849  0.52655480  0.40069746    -0.34200
N48         N  0.57685882  0.53066175  0.38340662    -0.28400
C49         C  0.56134475  0.51236400  0.37499140    -0.04500
C50         C  0.57752759  0.49605902  0.38772712     0.07700
C51         C  0.60331524  0.50569993  0.40375487     0.01500
H52         H  0.53760937  0.51113197  0.36134114     0.09100
H53         H  0.61870937  0.49827856  0.41748141     0.08200
N54         N  0.55506534  0.59374128  0.36984938    -0.35600
N55         N  0.55776506  0.60804075  0.38468699    -0.27800
C56         C  0.55569776  0.62732275  0.37616464    -0.03000
C57         C  0.55216428  0.62507528  0.35499526     0.05600
C58         C  0.55205207  0.60360645  0.35154026     0.03700
H59         H  0.56055150  0.64185239  0.38463542     0.08800
H60         H  0.55213140  0.59572063  0.33674122     0.07600
N61         N  0.45418231  0.39345004  0.44196478    -0.26800
N62         N  0.49710322  0.40400681  0.44363019    -0.34700
C63         C  0.50749514  0.40747848  0.46359220     0.01500
C64         C  0.46927189  0.39876710  0.47524803     0.07600
C65         C  0.43602911  0.38983727  0.46106080    -0.05500
H66         H  0.53873065  0.41696877  0.46907301     0.08200
H67         H  0.40009127  0.38239231  0.46428869     0.09400
Cu68       Cu  0.53312754  0.41809280  0.41924752     0.44200
Cu69       Cu  0.42220114  0.38712676  0.41318281     0.42000
Cu70       Cu  0.46778582  0.42201415  0.37138853     0.43900
N71         N  0.54627264  0.44181882  0.39845152    -0.34200
N72         N  0.51995463  0.44444441  0.38120282    -0.28400
C73         C  0.52944025  0.46380199  0.37368603    -0.04500
C74         C  0.56315782  0.47370611  0.38703484     0.07700
C75         C  0.57314146  0.45919050  0.40240851     0.01500
H76         H  0.51048103  0.47066332  0.36039985     0.09100
H77         H  0.59454039  0.46173384  0.41649190     0.08200
N78         N  0.42382152  0.39522571  0.36694128    -0.35600
N79         N  0.40773899  0.38275604  0.38184237    -0.27800
C80         C  0.38629192  0.36565900  0.37331626    -0.03000
C81         C  0.38872382  0.36736641  0.35204040     0.05600
C82         C  0.41280677  0.38634823  0.34862198     0.03700
H83         H  0.37245294  0.35241450  0.38201547     0.08800
H84         H  0.42522044  0.39250011  0.33396056     0.07600
N85         N  0.61226273  0.59829743  0.53084528    -0.26800
N86         N  0.62625471  0.57830134  0.53151149    -0.34700
C87         C  0.63581561  0.57143569  0.51234834     0.01500
C88         C  0.62701229  0.58783614  0.49877775     0.07600
C89         C  0.61229281  0.60474168  0.51102364    -0.05500
H90         H  0.64408663  0.55522396  0.50847720     0.08200
H91         H  0.59958666  0.62009838  0.50583955     0.09400
Cu92       Cu  0.61713152  0.55968709  0.55713698     0.44200
Cu93       Cu  0.58782291  0.61375613  0.55734827     0.42000
Cu94       Cu  0.53926302  0.57814974  0.59835016     0.43900
N95         N  0.57860181  0.53988315  0.57653070    -0.34200
N96         N  0.54667674  0.54609797  0.59104233    -0.28400
C97         C  0.52094180  0.52910300  0.59779807    -0.04500
C98         C  0.53768687  0.51156162  0.58677481     0.07700
C99         C  0.57432982  0.51913004  0.57361274     0.01500
H100        H  0.49051236  0.52966052  0.60898095     0.09100
H101        H  0.59408229  0.51048665  0.56165067     0.08200
N102        N  0.54888292  0.61078146  0.60140089    -0.35600
N103        N  0.56707506  0.62324878  0.58691746    -0.27800
C104        C  0.57274529  0.64270626  0.59474388    -0.03000
C105        C  0.55693415  0.64283261  0.61514477     0.05600
C106        C  0.54214751  0.62218323  0.61871147     0.03700
H107        H  0.58970220  0.65549843  0.58626761     0.08800
H108        H  0.52862466  0.61567696  0.63304361     0.07600
N109        N  0.43161658  0.40273421  0.52927526    -0.26800
N110        N  0.47255501  0.41462226  0.52902556    -0.34700
C111        C  0.49263587  0.41432718  0.51007618     0.01500
C112        C  0.46286462  0.40168429  0.49762693     0.07600
C113        C  0.42436232  0.39450579  0.51029526    -0.05500
H114        H  0.52511110  0.42350410  0.50550975     0.08200
H115        H  0.39290883  0.38454064  0.50595732     0.09400
Cu116      Cu  0.49457142  0.43348585  0.55333946     0.44200
Cu117      Cu  0.38958195  0.39953039  0.55605636     0.42000
Cu118      Cu  0.41856327  0.43811409  0.59825270     0.43900
N119        N  0.50030318  0.45829455  0.57372896    -0.34200
N120        N  0.47042964  0.46127017  0.58980818    -0.28400
C121        C  0.47958113  0.48059319  0.59773892    -0.04500
C122        C  0.51718109  0.48998095  0.58596262     0.07700
C123        C  0.52926954  0.47526437  0.57102475     0.01500
H124        H  0.45948350  0.48748516  0.61064900     0.09100
H125        H  0.55522928  0.47714897  0.55828239     0.08200
N126        N  0.37931788  0.40984528  0.60177558    -0.35600
N127        N  0.36860577  0.39645035  0.58672395    -0.27800
C128        C  0.34865175  0.37895764  0.59487024    -0.03000
C129        C  0.34722210  0.38113779  0.61610526     0.05600
C130        C  0.36637054  0.40105824  0.61985375     0.03700
H131        H  0.33794746  0.36532945  0.58586104     0.08800
H132        H  0.37363283  0.40809242  0.63476844     0.07600
N133        N  0.75519142  0.92152243  0.45323372    -0.26800
N134        N  0.74268327  0.94167833  0.45263227    -0.34700
C135        C  0.72590275  0.94771262  0.47123098     0.01500
C136        C  0.72846904  0.93056415  0.48431361     0.07600
C137        C  0.74685564  0.91412467  0.47234325    -0.05500
H138        H  0.71775749  0.96386931  0.47542207     0.08200
H139        H  0.75765900  0.89853037  0.47754961     0.09400
Cu140      Cu  0.76348056  0.96132282  0.42895030     0.44200
Cu141      Cu  0.79100573  0.90686499  0.42877628     0.42000
Cu142      Cu  0.84930910  0.94189131  0.39019317     0.43900
N143        N  0.80634381  0.98058659  0.41046901    -0.34200
N144        N  0.83969008  0.97387415  0.39668770    -0.28400
C145        C  0.86525981  0.99060463  0.38939820    -0.04500
C146        C  0.84700540  0.00854825  0.39924026     0.07700
C147        C  0.80972533  0.00152283  0.41240565     0.01500
H148        H  0.89607657  0.98967534  0.37839595     0.09100
H149        H  0.78816323  0.01078795  0.42338111     0.08200
N150        N  0.84311593  0.90926493  0.38728604    -0.35600
N151        N  0.82193435  0.89693283  0.40116085    -0.27800
C152        C  0.81849405  0.87735917  0.39350963    -0.03000
C153        C  0.83866130  0.87708740  0.37383501     0.05600
C154        C  0.85393956  0.89767620  0.37046190     0.03700
H155        H  0.79906955  0.86472161  0.40125900     0.08800
H156        H  0.86955580  0.90405928  0.35643466     0.07600
N157        N  0.95184163  0.12067177  0.44696870    -0.26800
N158        N  0.90844678  0.11032335  0.44738921    -0.34700
C159        C  0.88948551  0.11095129  0.46652412     0.01500
C160        C  0.92264105  0.12203828  0.47898303     0.07600
C161        C  0.96176671  0.12813553  0.46605600    -0.05500
H162        H  0.85642559  0.10224903  0.47136349     0.08200
H163        H  0.99642005  0.13610637  0.47046714     0.09400
Cu164      Cu  0.88397789  0.09054385  0.42422220     0.44200
Cu165      Cu  0.99665126  0.12135784  0.42056290     0.42000
Cu166      Cu  0.96692735  0.07983033  0.38245665     0.43900
N167        N  0.88013431  0.06334431  0.40692621    -0.34200
N168        N  0.91246549  0.05848807  0.39209490    -0.28400
C169        C  0.90487766  0.03834138  0.38631609    -0.04500
C170        C  0.86586396  0.03029114  0.39819917     0.07700
C171        C  0.85113377  0.04663255  0.41099476     0.01500
H172        H  0.92731564  0.02998290  0.37495199     0.09100
H173        H  0.82346733  0.04608213  0.42328962     0.08200
N174        N  0.01247987  0.10578838  0.37674021    -0.35600
N175        N  0.02435272  0.12032834  0.39050011    -0.27800
C176        C  0.05022473  0.13566170  0.38104425    -0.03000
C177        C  0.05457188  0.13089874  0.36014416     0.05600
C178        C  0.02987675  0.11170813  0.35821155     0.03700
H179        H  0.06220676  0.14989416  0.38880655     0.08800
H180        H  0.02129833  0.10311725  0.34417641     0.07600
N181        N  0.74581410  0.92517233  0.53956065    -0.26800
N182        N  0.73284436  0.94523662  0.53808761    -0.34700
C183        C  0.72004425  0.94961249  0.51849811     0.01500
C184        C  0.72577664  0.93147004  0.50693301     0.07600
C185        C  0.74176959  0.91617588  0.52082039    -0.05500
H186        H  0.71276726  0.96533773  0.51275790     0.08200
H187        H  0.75429841  0.90032356  0.51725004     0.09400
Cu188      Cu  0.74880117  0.96703021  0.56066680     0.44200
Cu189      Cu  0.77826221  0.91295673  0.56618806     0.42000
Cu190      Cu  0.83317286  0.95175578  0.60217908     0.43900
N191        N  0.78772768  0.98820434  0.57877883    -0.34200
N192        N  0.82021164  0.98293413  0.59360809    -0.28400
C193        C  0.84382463  0.00044112  0.60028305    -0.04500
C194        C  0.82533504  0.01738293  0.58892504     0.07700
C195        C  0.78984095  0.00900344  0.57552286     0.01500
H196        H  0.87395570  0.00064158  0.61174718     0.09100
H197        H  0.76908958  0.01718767  0.56342696     0.08200
N198        N  0.83261649  0.91937554  0.60712152    -0.35600
N199        N  0.81182225  0.90567245  0.59430741    -0.27800
C200        C  0.81344469  0.88651474  0.60293962    -0.03000
C201        C  0.83699090  0.88790521  0.62208554     0.05600
C202        C  0.84844254  0.90911244  0.62417724     0.03700
H203        H  0.79573449  0.87278296  0.59602105     0.08800
H204        H  0.86547224  0.91673710  0.63741171     0.07600
N205        N  0.94526426  0.12325833  0.53448961    -0.26800
N206        N  0.90123831  0.11338915  0.53345169    -0.34700
C207        C  0.88516824  0.11291666  0.51379057     0.01500
C208        C  0.92088414  0.12278852  0.50168860     0.07600
C209        C  0.95845820  0.12932347  0.51533873    -0.05500
H210        H  0.85212544  0.10433821  0.50852467     0.08200
H211        H  0.99426791  0.13658800  0.51149089     0.09400
Cu212      Cu  0.87137632  0.09588236  0.55721377     0.44200
Cu213      Cu  0.98665958  0.12526747  0.56187746     0.42000
Cu214      Cu  0.94756820  0.08823887  0.60226110     0.43900
N215        N  0.86197882  0.07088912  0.57710753    -0.34200
N216        N  0.89178148  0.06725437  0.59323618    -0.28400
C217        C  0.88187043  0.04796629  0.60071902    -0.04500
C218        C  0.84401822  0.03912702  0.58861659     0.07700
C219        C  0.83221082  0.05415193  0.57389466     0.01500
H220        H  0.90247757  0.04055157  0.61332354     0.09100
H221        H  0.80661784  0.05247133  0.56086015     0.08200
N222        N  0.99611540  0.11333856  0.60701866    -0.35600
N223        N  0.01115778  0.12636283  0.59244161    -0.27800
C224        C  0.03709193  0.14216066  0.60125891    -0.03000
C225        C  0.03804322  0.13920871  0.62248596     0.05600
C226        C  0.01162833  0.12066241  0.62543822     0.03700
H227        H  0.05099069  0.15559482  0.59285800     0.08800
H228        H  0.00010144  0.11388550  0.63997598     0.07600
C229        C  0.57928930  0.32337581  0.79519685     0.03600
C230        C  0.53793330  0.32177593  0.78148012    -0.12500
C231        C  0.53556452  0.30524030  0.76709384     0.01100
C232        C  0.57596675  0.29050215  0.76621661    -0.11000
C233        C  0.61815912  0.29219697  0.77960730     0.03600
C234        C  0.61934830  0.30863308  0.79407017    -0.10500
H235        H  0.50754941  0.33344075  0.78203039     0.09200
H236        H  0.57453965  0.27771875  0.75517949     0.06700
H237        H  0.65151260  0.30989654  0.80458454     0.06600
C238        C  0.31879996  0.32093355  0.68134722     0.03600
C239        C  0.27859991  0.30682715  0.68369139    -0.12500
C240        C  0.28051956  0.29147041  0.69924021     0.01100
C241        C  0.32360907  0.29015752  0.71223672    -0.11000
C242        C  0.36425111  0.30424905  0.70997374     0.03600
C243        C  0.36117543  0.31972836  0.69458901    -0.10500
H244        H  0.24641425  0.30750819  0.67312862     0.09200
H245        H  0.32547805  0.27818158  0.72409173     0.06700
H246        H  0.39179203  0.33089645  0.69285288     0.06600
C247        C  0.82109833  0.19897052  0.80070627     0.03600
C248        C  0.86295120  0.20056310  0.78742196    -0.12500
C249        C  0.86544660  0.21691751  0.77289548     0.01100
C250        C  0.82424666  0.23120882  0.77126489    -0.11000
C251        C  0.78175184  0.22982408  0.78434845     0.03600
C252        C  0.78138488  0.21392102  0.79942085    -0.10500
H253        H  0.89357317  0.18901546  0.78842996     0.09200
H254        H  0.82535773  0.24348673  0.75973500     0.06700
H255        H  0.75026686  0.21309731  0.81026375     0.06600
C256        C  0.07100657  0.20242517  0.68515483     0.03600
C257        C  0.03253968  0.20378043  0.69991734    -0.12500
C258        C  0.03419759  0.21903330  0.71549820     0.01100
C259        C  0.07650141  0.23243198  0.71681520    -0.11000
C260        C  0.11593331  0.23116342  0.70210143     0.03600
C261        C  0.11211530  0.21629721  0.68607181    -0.10500
H262        H  0.00085316  0.19298088  0.69914609     0.09200
H263        H  0.07832017  0.24396720  0.72908326     0.06700
H264        H  0.14085606  0.21555537  0.67415385     0.06600
N265        N  0.43670495  0.61196381  0.03543406    -0.26800
N266        N  0.48211777  0.60286902  0.03439950    -0.34700
C267        C  0.49859996  0.60335268  0.01492442     0.01500
C268        C  0.46196086  0.61320074  0.00285585     0.07600
C269        C  0.42298391  0.61855000  0.01635095    -0.05500
H270        H  0.53393658  0.59618472  0.00984304     0.08200
H271        H  0.38708036  0.62616684  0.01253525     0.09400
Cu272      Cu  0.51732796  0.58706894  0.05835224     0.44200
Cu273      Cu  0.39842616  0.61391967  0.06344979     0.42000
Cu274      Cu  0.45541527  0.58074690  0.10570039     0.43900
N275        N  0.53751355  0.56368076  0.07885793    -0.34200
N276        N  0.51291202  0.56009522  0.09616495    -0.28400
C277        C  0.52890312  0.54140098  0.10390373    -0.04500
C278        C  0.56527000  0.53299526  0.09065505     0.07700
C279        C  0.56977729  0.54767985  0.07509117     0.01500
H280        H  0.51323663  0.53398014  0.11742658     0.09100
H281        H  0.59186153  0.54613695  0.06113359     0.08200
N282        N  0.40337766  0.60549574  0.10971631    -0.35600
N283        N  0.38181245  0.61670059  0.09476430    -0.27800
C284        C  0.35409228  0.63235514  0.10323349    -0.03000
C285        C  0.35855530  0.63132275  0.12458815     0.05600
C286        C  0.39036523  0.61400822  0.12793628     0.03700
H287        H  0.33464882  0.64441303  0.09427026     0.08800
H288        H  0.40669065  0.60869708  0.14255860     0.07600
N289        N  0.65141866  0.42276008  0.03218641    -0.26800
N290        N  0.66428555  0.44277899  0.03195074    -0.34700
C291        C  0.67383482  0.44866391  0.01255005     0.01500
C292        C  0.66643787  0.43161566  0.99967612     0.07600
C293        C  0.65232414  0.41531276  0.01264720    -0.05500
H294        H  0.68240441  0.46461951  0.00806657     0.08200
H295        H  0.64144718  0.39957661  0.00814793     0.09400
Cu296      Cu  0.65778288  0.46263461  0.05694150     0.44200
Cu297      Cu  0.63043575  0.40855435  0.05978759     0.42000
Cu298      Cu  0.59934471  0.44573198  0.10310787     0.43900
N299        N  0.62650495  0.48325019  0.07800034    -0.34200
N300        N  0.60201046  0.47742528  0.09474091    -0.28400
C301        C  0.57827533  0.49448789  0.10284723    -0.04500
C302        C  0.58849162  0.51172301  0.09041942     0.07700
C303        C  0.61938346  0.50391685  0.07496275     0.01500
H304        H  0.55309050  0.49412572  0.11598672     0.09100
H305        H  0.63264326  0.51226967  0.06153541     0.08200
N306        N  0.60703533  0.41304919  0.10577136    -0.35600
N307        N  0.61754822  0.39999473  0.09038120    -0.27800
C308        C  0.62035233  0.38024589  0.09777385    -0.03000
C309        C  0.61161228  0.38072639  0.11882553     0.05600
C310        C  0.60305041  0.40182664  0.12328779     0.03700
H311        H  0.62882654  0.36655776  0.08849659     0.08800
H312        H  0.59366779  0.40861867  0.13814755     0.07600
N313        N  0.44470981  0.61880637  0.94704053    -0.26800
N314        N  0.49047400  0.60999947  0.94833175    -0.34700
C315        C  0.50360159  0.60770090  0.96817694     0.01500
C316        C  0.46431816  0.61527907  0.98023305     0.07600
C317        C  0.42740994  0.62235966  0.96634674    -0.05500
H318        H  0.53800876  0.59975633  0.97336953     0.08200
H319        H  0.39008052  0.62869252  0.96997405     0.09400
Cu320      Cu  0.52904227  0.59638874  0.92412410     0.44200
Cu321      Cu  0.40940038  0.62354839  0.91845189     0.42000
Cu322      Cu  0.46536745  0.59055081  0.87685489     0.43900
N323        N  0.54724344  0.57273309  0.90367269    -0.34200
N324        N  0.52147662  0.56949167  0.88643900    -0.28400
C325        C  0.53508712  0.55059117  0.87865547    -0.04500
C326        C  0.57109565  0.54160708  0.89178836     0.07700
C327        C  0.57797463  0.55615780  0.90738720     0.01500
H328        H  0.51786122  0.54342936  0.86519891     0.09100
H329        H  0.60035604  0.55412924  0.92133245     0.08200
N330        N  0.41716258  0.61621948  0.87220583    -0.35600
N331        N  0.39596141  0.62770991  0.88691826    -0.27800
C332        C  0.37165316  0.64418571  0.87815656    -0.03000
C333        C  0.37823259  0.64334508  0.85687473     0.05600
C334        C  0.40751454  0.62527385  0.85388313     0.03700
H335        H  0.35309822  0.65657358  0.88693814     0.08800
H336        H  0.42456073  0.61972719  0.83964946     0.07600
N337        N  0.65250250  0.42620282  0.94370290    -0.26800
N338        N  0.66565619  0.44611480  0.94558792    -0.34700
C339        C  0.67503106  0.45042317  0.96546286     0.01500
C340        C  0.66705031  0.43246195  0.97692263     0.07600
C341        C  0.65295328  0.41726499  0.96261478    -0.05500
H342        H  0.68342627  0.46598764  0.97125980     0.08200
H343        H  0.64129261  0.40132722  0.96581603     0.09400
Cu344      Cu  0.65834208  0.46815975  0.92244799     0.44200
Cu345      Cu  0.62986837  0.41416875  0.91517351     0.42000
Cu346      Cu  0.58996515  0.45468226  0.87680809     0.43900
N347        N  0.62642061  0.49031753  0.90294221    -0.34200
N348        N  0.59910865  0.48559448  0.88642603    -0.28400
C349        C  0.57716055  0.50334323  0.87903459    -0.04500
C350        C  0.59130135  0.51991587  0.89168149     0.07700
C351        C  0.62263766  0.51104819  0.90658878     0.01500
H352        H  0.55064661  0.50392202  0.86619087     0.09100
H353        H  0.63875586  0.51879951  0.91995094     0.08200
N354        N  0.59389783  0.42252438  0.87109316    -0.35600
N355        N  0.60952155  0.40818805  0.88455047    -0.27800
C356        C  0.61051324  0.38932786  0.87517645    -0.03000
C357        C  0.59452809  0.39164556  0.85478262     0.05600
C358        C  0.58396280  0.41305763  0.85297515     0.03700
H359        H  0.62284518  0.37497358  0.88278818     0.08800
H360        H  0.56967833  0.42150461  0.83961088     0.07600
C361        C  0.57628335  0.69059710  0.29449370     0.03600
C362        C  0.53612030  0.69412990  0.28062595    -0.12500
C363        C  0.53552852  0.71188631  0.26783638     0.01100
C364        C  0.57518758  0.72650270  0.26942879    -0.11000
C365        C  0.61668371  0.72295849  0.28297959     0.03600
C366        C  0.61710731  0.70458243  0.29517514    -0.10500
H367        H  0.50471313  0.68319203  0.28009304     0.09200
H368        H  0.57228764  0.74098495  0.26071038     0.06700
H369        H  0.64811416  0.70151350  0.30589957     0.06600
C370        C  0.32309198  0.69853182  0.18335643     0.03600
C371        C  0.28043825  0.71193292  0.18499458    -0.12500
C372        C  0.27906540  0.72786243  0.20007117     0.01100
C373        C  0.32039286  0.73010266  0.21375579    -0.11000
C374        C  0.36292862  0.71663847  0.21239687     0.03600
C375        C  0.36412670  0.70105936  0.19708259    -0.10500
H376        H  0.24804673  0.70982497  0.17476930     0.09200
H377        H  0.31920548  0.74217153  0.22557249     0.06700
H378        H  0.39689273  0.69060093  0.19605222     0.06600
C379        C  0.82442837  0.81094119  0.31274443     0.03600
C380        C  0.86609180  0.80866802  0.29953275    -0.12500
C381        C  0.86611221  0.79350342  0.28378017     0.01100
C382        C  0.82403296  0.78015442  0.28181647    -0.11000
C383        C  0.78258113  0.78175049  0.29542489     0.03600
C384        C  0.78295150  0.79734616  0.31082914    -0.10500
H385        H  0.89836638  0.81902129  0.30140269     0.09200
H386        H  0.82283484  0.76879151  0.26937620     0.06700
H387        H  0.75043826  0.79940168  0.32086762     0.06600
C388        C  0.04591238  0.80686858  0.18673199     0.03600
C389        C  0.01251985  0.80699565  0.20344000    -0.12500
C390        C  0.02223239  0.79445820  0.22083369     0.01100
C391        C  0.06567180  0.78127679  0.22107847    -0.11000
C392        C  0.09908348  0.78084168  0.20420288     0.03600
C393        C  0.08907007  0.79378708  0.18707834    -0.10500
H394        H  0.97793933  0.81645980  0.20252955     0.09200
H395        H  0.07375829  0.77153821  0.23442837     0.06700
H396        H  0.11434053  0.79343822  0.17392836     0.06600
C397        C  0.36485080  0.30211815  0.29072354     0.03600
C398        C  0.32322763  0.28852051  0.29010117    -0.12500
C399        C  0.31841682  0.27368021  0.27413530     0.01100
C400        C  0.35659143  0.27222047  0.25900966    -0.11000
C401        C  0.39853185  0.28585293  0.25955232     0.03600
C402        C  0.40203487  0.30082666  0.27541535    -0.10500
H403        H  0.29446775  0.28956340  0.30201288     0.09200
H404        H  0.35371893  0.26047627  0.24695900     0.06700
H405        H  0.43384433  0.31157114  0.27586006     0.06600
C406        C  0.60246502  0.30808094  0.17254753     0.03600
C407        C  0.56289538  0.30563228  0.18670971    -0.12500
C408        C  0.56362543  0.28879321  0.20073656     0.01100
C409        C  0.60469739  0.27436946  0.20042924    -0.11000
C410        C  0.64474426  0.27664794  0.18630448     0.03600
C411        C  0.64306341  0.29354892  0.17231431    -0.10500
H412        H  0.53202053  0.31709094  0.18706062     0.09200
H413        H  0.60586160  0.26157884  0.21142439     0.06700
H414        H  0.67383341  0.29563952  0.16144668     0.06600
C415        C  0.09858679  0.19020785  0.29477172     0.03600
C416        C  0.14138299  0.20319355  0.29339772    -0.12500
C417        C  0.14529921  0.21790025  0.27734233     0.01100
C418        C  0.10520838  0.21989768  0.26296275    -0.11000
C419        C  0.06221771  0.20689793  0.26400498     0.03600
C420        C  0.05991931  0.19179099  0.27976525    -0.10500
H421        H  0.17151763  0.20189973  0.30486356     0.09200
H422        H  0.10770472  0.23156637  0.25087178     0.06700
H423        H  0.02800378  0.18115853  0.28043839     0.06600
C424        C  0.86519089  0.19028553  0.17245086     0.03600
C425        C  0.82458094  0.20478424  0.17236929    -0.12500
C426        C  0.82329790  0.22156828  0.18651126     0.01100
C427        C  0.86360815  0.22360861  0.20080583    -0.11000
C428        C  0.90497986  0.20932024  0.20070460     0.03600
C429        C  0.90548357  0.19271259  0.18643679    -0.10500
H430        H  0.79335100  0.20267410  0.16155667     0.09200
H431        H  0.86224033  0.23590765  0.21236215     0.06700
H432        H  0.93599834  0.18106972  0.18687186     0.06600
N433        N  0.81725323  0.93547718  0.09973387    -0.26800
N434        N  0.78348625  0.93363828  0.08464544    -0.34700
C435        C  0.76053567  0.95228507  0.08144059     0.01500
C436        C  0.78104984  0.96679107  0.09493098     0.07600
C437        C  0.81666580  0.95556395  0.10651962    -0.05500
H438        H  0.73478628  0.95548922  0.06869603     0.08200
H439        H  0.84333993  0.96190039  0.11764331     0.09400
Cu440      Cu  0.78147699  0.90888735  0.06407368     0.44200
Cu441      Cu  0.86804691  0.91123761  0.10706421     0.42000
Cu442      Cu  0.88388774  0.87193923  0.06581232     0.43900
N443        N  0.80467282  0.89191592  0.03859585    -0.34200
N444        N  0.84388532  0.87871654  0.03896689    -0.28400
C445        C  0.85664765  0.87376888  0.01947667    -0.04500
C446        C  0.82409422  0.88458582  0.00623476     0.07700
C447        C  0.79145345  0.89580694  0.01891006     0.01500
H448        H  0.88981415  0.86452383  0.01529225     0.09100
H449        H  0.76349005  0.90754005  0.01420934     0.08200
N450        N  0.91732422  0.86970463  0.09475935    -0.35600
N451        N  0.91182222  0.88385877  0.10957801    -0.27800
C452        C  0.93678636  0.87704155  0.12649395    -0.03000
C453        C  0.95880026  0.85760711  0.12222658     0.05600
C454        C  0.94590000  0.85356175  0.10187077     0.03700
H455        H  0.93726945  0.88530131  0.14107579     0.08800
H456        H  0.95612107  0.83988253  0.09279454     0.07600
N457        N  0.78732549  0.02416066  0.09548232    -0.26800
N458        N  0.75980326  0.02072663  0.07869423    -0.34700
C459        C  0.75118896  0.00006935  0.07686613     0.01500
C460        C  0.77484833  0.98978172  0.09311799     0.07600
C461        C  0.79745894  0.00553759  0.10471291    -0.05500
H462        H  0.73215639  0.99297610  0.06378556     0.08200
H463        H  0.82131720  0.00354812  0.11826898     0.09400
Cu464      Cu  0.74326720  0.04304259  0.05645657     0.44200
Cu465      Cu  0.81164884  0.05418203  0.10342899     0.42000
Cu466      Cu  0.79780536  0.09347573  0.06146329     0.43900
N467        N  0.74363055  0.06456998  0.03262161    -0.34200
N468        N  0.76516420  0.08319763  0.03408394    -0.28400
C469        C  0.76302927  0.09269936  0.01552275    -0.04500
C470        C  0.73902309  0.07927881  0.00178097     0.07700
C471        C  0.72725865  0.06162065  0.01318581     0.01500
H472        H  0.77916939  0.10791385  0.01215721     0.09100
H473        H  0.70999711  0.04732949  0.00763367     0.08200
N474        N  0.82095932  0.10013459  0.09141163    -0.35600
N475        N  0.82525213  0.08626695  0.10655990    -0.27800
C476        C  0.83701507  0.09651239  0.12411184    -0.03000
C477        C  0.84019059  0.11782374  0.11982547     0.05600
C478        C  0.83016306  0.11944424  0.09891712     0.03700
H479        H  0.84248386  0.08891070  0.13891297     0.08800
H480        H  0.82767210  0.13373811  0.08994311     0.07600
N481        N  0.85259565  0.95090915  0.89485716    -0.26800
N482        N  0.81685980  0.94856342  0.90892528    -0.34700
C483        C  0.78774027  0.96601708  0.90955803     0.01500
C484        C  0.80600711  0.98023033  0.89534098     0.07600
C485        C  0.84716993  0.97011867  0.88620516    -0.05500
H486        H  0.75738842  0.96860802  0.92052411     0.08200
H487        H  0.87260750  0.97656107  0.87481903     0.09400
Cu488      Cu  0.81385058  0.92376523  0.92953796     0.44200
Cu489      Cu  0.90858263  0.92809165  0.88969038     0.42000
Cu490      Cu  0.91680080  0.88658111  0.92885462     0.43900
N491        N  0.82732399  0.90243316  0.95309248    -0.34200
N492        N  0.86615690  0.88902770  0.95314063    -0.28400
C493        C  0.86904698  0.87955710  0.97166178    -0.04500
C494        C  0.83029262  0.88751648  0.98388345     0.07700
C495        C  0.80444808  0.90191024  0.97157027     0.01500
H496        H  0.89911816  0.86873095  0.97628805     0.09100
H497        H  0.77378518  0.91234704  0.97614418     0.08200
N498        N  0.95875345  0.88673545  0.90187866    -0.35600
N499        N  0.95562437  0.90158230  0.88764410    -0.27800
C500        C  0.98226168  0.89532324  0.87103610    -0.03000
C501        C  0.00331347  0.87557983  0.87492537     0.05600
C502        C  0.98755207  0.87074725  0.89471622     0.03700
H503        H  0.98225311  0.90374365  0.85654276     0.08800
H504        H  0.99360800  0.85607155  0.90284442     0.07600
N505        N  0.78842078  0.03685516  0.88786883    -0.26800
N506        N  0.75307434  0.03268781  0.90166271    -0.34700
C507        C  0.75214293  0.01193341  0.90516465     0.01500
C508        C  0.78895678  0.00232075  0.89320573     0.07600
C509        C  0.81118273  0.01857228  0.88224667    -0.05500
H510        H  0.72953575  0.00467846  0.91704986     0.08200
H511        H  0.84364127  0.01737307  0.87208085     0.09400
Cu512      Cu  0.71952840  0.05479705  0.92051850     0.44200
Cu513      Cu  0.80636749  0.06785610  0.88015327     0.42000
Cu514      Cu  0.76874320  0.10614908  0.92018834     0.43900
N515        N  0.72186942  0.07327214  0.94656672    -0.34200
N516        N  0.74292608  0.09203989  0.94701583    -0.28400
C517        C  0.74968926  0.09785015  0.96684905    -0.04500
C518        C  0.73223048  0.08178748  0.97934602     0.07700
C519        C  0.71464093  0.06657365  0.96592323     0.01500
H520        H  0.76914089  0.11191104  0.97174681     0.09100
H521        H  0.70188257  0.05094154  0.96986358     0.08200
N522        N  0.79274736  0.11420088  0.89073268    -0.35600
N523        N  0.80773976  0.10058433  0.87651631    -0.27800
C524        C  0.81927983  0.11124092  0.85926602    -0.03000
C525        C  0.81094457  0.13267795  0.86256262     0.05600
C526        C  0.79377695  0.13371673  0.88279075     0.03700
H527        H  0.83175308  0.10372223  0.84516621     0.08800
H528        H  0.78059277  0.14747929  0.89118064     0.07600
C529        C  0.83607340  0.15384212  0.16674368    -0.11800
C530        C  0.86249680  0.17131219  0.15943912     0.05200
C531        C  0.88408921  0.17067965  0.13967929    -0.07100
C532        C  0.87709096  0.15296573  0.12715622    -0.07800
C533        C  0.84948912  0.13556343  0.13418470    -0.02400
C534        C  0.82959997  0.13597130  0.15439352     0.04500
N535        N  0.80017922  0.11898749  0.16219272     0.67000
H536        H  0.81931651  0.15429017  0.18203109     0.15900
H537        H  0.89337367  0.15283177  0.11178486     0.15600
N538        N  0.91285305  0.18797204  0.13214240     0.73100
O539        O  0.81923440  0.10696430  0.17573526    -0.38800
O540        O  0.75280727  0.11861351  0.15872181    -0.38700
O541        O  0.96066308  0.18798960  0.13442650    -0.39400
O542        O  0.89164557  0.20158153  0.12072441    -0.39500
C543        C  0.93149938  0.20859060  0.23756522    -0.11800
C544        C  0.94522319  0.21028683  0.21679544     0.05200
C545        C  0.99721557  0.21141618  0.21166059    -0.07100
C546        C  0.03445172  0.21039295  0.22720962    -0.07800
C547        C  0.02099942  0.20857314  0.24809244    -0.02400
C548        C  0.96859662  0.20788747  0.25320947     0.04500
N549        N  0.95221019  0.20703995  0.27418282     0.67000
H550        H  0.89150495  0.20768393  0.24167668     0.15900
H551        H  0.07430890  0.21084452  0.22284370     0.15600
N552        N  0.01264753  0.21418569  0.19075227     0.74700
O553        O  0.95594626  0.22314438  0.28546944    -0.38800
O554        O  0.92637289  0.19163145  0.28029034    -0.38700
O555        O  0.01382191  0.23247031  0.18321856    -0.39400
O556        O  0.03319207  0.19908678  0.18113220    -0.39500
C557        C  0.73902095  0.27090973  0.18750580    -0.11800
C558        C  0.68994227  0.26225190  0.18687966     0.05200
C559        C  0.68517296  0.24013667  0.18682336    -0.07100
C560        C  0.72893684  0.22727595  0.18700105    -0.07800
C561        C  0.77804382  0.23593759  0.18707748    -0.02400
C562        C  0.78280375  0.25804659  0.18751297     0.04500
N563        N  0.83171813  0.26772933  0.18701813     0.67000
H564        H  0.74345662  0.28784105  0.18774986     0.15900
H565        H  0.72444492  0.21034602  0.18687619     0.15600
N566        N  0.63630613  0.23045328  0.18564623     0.74700
O567        O  0.85588309  0.26848651  0.17027810    -0.38800
O568        O  0.84675397  0.27842874  0.20225278    -0.38700
O569        O  0.61529577  0.22790363  0.16827618    -0.39400
O570        O  0.61926650  0.22087177  0.20113696    -0.39500
C571        C  0.18239560  0.25371406  0.27503440    -0.11800
C572        C  0.19020836  0.23185899  0.27592629     0.05200
C573        C  0.24056917  0.22378327  0.27533189    -0.07100
C574        C  0.28183467  0.23759304  0.27426502    -0.07800
C575        C  0.27393030  0.25945335  0.27369367    -0.02400
C576        C  0.22356148  0.26748797  0.27381523     0.04500
N577        N  0.21364382  0.28957600  0.27205268     0.67000
H578        H  0.14383911  0.26017341  0.27527444     0.15900
H579        H  0.32044549  0.23119192  0.27409503     0.15600
N580        N  0.25029680  0.20161696  0.27512166     0.74700
O581        O  0.21653252  0.29833735  0.25465282    -0.38800
O582        O  0.19408939  0.29948821  0.28696015    -0.38700
O583        O  0.24990680  0.19181930  0.25818520    -0.39400
O584        O  0.26845688  0.19274992  0.29098819    -0.39500
C585        C  0.49060503  0.28315518  0.25095067    -0.11800
C586        C  0.43984502  0.28456225  0.24403430     0.05200
C587        C  0.43002762  0.28635230  0.22268916    -0.07100
C588        C  0.47077577  0.28730464  0.20883394    -0.07800
C589        C  0.52159753  0.28660108  0.21583620    -0.02400
C590        C  0.53131524  0.28431153  0.23716386     0.04500
N591        N  0.58216229  0.28456375  0.24523176     0.67000
H592        H  0.49875386  0.28186547  0.26733597     0.15900
H593        H  0.46264274  0.28898444  0.19248411     0.15600
N594        N  0.37911081  0.28848360  0.21495032     0.74700
O595        O  0.60539660  0.30179393  0.24667822    -0.38800
O596        O  0.60021534  0.26843266  0.25408916    -0.38700
O597        O  0.35916463  0.30656451  0.21330722    -0.39400
O598        O  0.35818327  0.27303379  0.20621557    -0.39500
C599        C  0.00715891  0.80973077  0.15203906    -0.11800
C600        C  0.03267588  0.81945253  0.16841748     0.05200
C601        C  0.03811153  0.84142150  0.16850613    -0.07100
C602        C  0.01547196  0.85347892  0.15284974    -0.07800
C603        C  0.98705216  0.84395380  0.13700402    -0.02400
C604        C  0.98410863  0.82172810  0.13639980     0.04500
N605        N  0.95396824  0.81115213  0.12125504     0.67000
H606        H  0.00223545  0.79278483  0.15211768     0.15900
H607        H  0.01922467  0.87046328  0.15337253     0.15600
N608        N  0.06536045  0.85167920  0.18473078     0.74700
O609        O  0.97554107  0.79970412  0.10792563    -0.38800
O610        O  0.90640078  0.80990735  0.12368391    -0.38700
O611        O  0.11209123  0.85556553  0.18256238    -0.39400
O612        O  0.04131534  0.85969490  0.19963780    -0.39500
C613        C  0.92530786  0.81239368  0.26063069    -0.11800
C614        C  0.90801146  0.79314420  0.26839510     0.05200
C615        C  0.93014196  0.77425443  0.26089314    -0.07100
C616        C  0.96783903  0.77503427  0.24568836    -0.07800
C617        C  0.98513582  0.79433360  0.23805037    -0.02400
C618        C  0.96399768  0.81318941  0.24598028     0.04500
N619        N  0.98236750  0.83331415  0.23978055     0.67000
H620        H  0.90864926  0.82711734  0.26600035     0.15900
H621        H  0.98351840  0.76037463  0.23970772     0.15600
N622        N  0.91589451  0.75421134  0.26888159     0.74700
O623        O  0.95232970  0.84635089  0.23126732    -0.38800
O624        O  0.02525544  0.83941233  0.24620760    -0.38700
O625        O  0.89646124  0.74068069  0.25701961    -0.39400
O626        O  0.93045961  0.74881857  0.28670827    -0.39500
C627        C  0.18571687  0.73256943  0.20515144    -0.11800
C628        C  0.23353282  0.74166039  0.20194973     0.05200
C629        C  0.23704062  0.76372956  0.20041106    -0.07100
C630        C  0.19288647  0.77621041  0.20150565    -0.07800
C631        C  0.14496522  0.76710858  0.20432539    -0.02400
C632        C  0.14157106  0.74507952  0.20643817     0.04500
N633        N  0.09338816  0.73513908  0.20892692     0.67000
H634        H  0.18260923  0.71559306  0.20647688     0.15900
H635        H  0.19594654  0.79316402  0.19990285     0.15600
N636        N  0.28483755  0.77360914  0.19681831     0.74700
O637        O  0.06697256  0.73067698  0.19322050    -0.38800
O638        O  0.08170229  0.72753145  0.22620793    -0.38700
O639        O  0.29974605  0.77626453  0.17855511    -0.39400
O640        O  0.30695846  0.78310447  0.21138903    -0.39500
C641        C  0.67650418  0.74282452  0.30585263    -0.11800
C642        C  0.65761450  0.73894888  0.28582767     0.05200
C643        C  0.67833616  0.75044871  0.26921682    -0.07100
C644        C  0.71754644  0.76479466  0.27288382    -0.07800
C645        C  0.73814535  0.76767119  0.29270392    -0.02400
C646        C  0.71683092  0.75664650  0.30935648     0.04500
N647        N  0.73756811  0.75832453  0.32973097     0.67000
H648        H  0.66049640  0.73477334  0.31901217     0.15900
H649        H  0.73301856  0.77338994  0.25993799     0.15600
N650        N  0.66194438  0.74719250  0.24839657     0.74700
O651        O  0.71169237  0.76704275  0.34374878    -0.38800
O652        O  0.77706180  0.74786331  0.33449864    -0.38700
O653        O  0.64337340  0.76240234  0.23822686    -0.39400
O654        O  0.67447792  0.73046734  0.23913581    -0.39500
C655        C  0.45579961  0.72009655  0.21930149    -0.11800
C656        C  0.40623477  0.71822184  0.22706464     0.05200
C657        C  0.39941141  0.71592030  0.24849129    -0.07100
C658        C  0.44198373  0.71457701  0.26155949    -0.07800
C659        C  0.49166760  0.71546164  0.25368774    -0.02400
C660        C  0.49842959  0.71868728  0.23235875     0.04500
N661        N  0.54820914  0.71910064  0.22353198     0.67000
H662        H  0.46149566  0.72182972  0.20281273     0.15900
H663        H  0.43620443  0.71227128  0.27797325     0.15600
N664        N  0.34975155  0.71351972  0.25704796     0.74700
O665        O  0.57336491  0.70218052  0.22162137    -0.38800
O666        O  0.56297119  0.73545377  0.21441935    -0.38700
O667        O  0.33212024  0.69530722  0.25952266    -0.39400
O668        O  0.32828582  0.72900081  0.26572187    -0.39500
C669        C  0.59296756  0.34287860  0.12518133    -0.11800
C670        C  0.60965828  0.36231430  0.13296438     0.05200
C671        C  0.62340699  0.36369684  0.15407006    -0.07100
C672        C  0.61950815  0.34596095  0.16679585    -0.07800
C673        C  0.60316369  0.32665166  0.15887011    -0.02400
C674        C  0.58966313  0.32515755  0.13790839     0.04500
N675        N  0.57158469  0.30582853  0.12947318     0.67000
H676        H  0.58150429  0.34144731  0.10908843     0.15900
H677        H  0.63090154  0.34709023  0.18292677     0.15600
N678        N  0.64444968  0.38250193  0.16254538     0.74700
O679        O  0.52479039  0.30157249  0.13048450    -0.38800
O680        O  0.60048589  0.29474801  0.11828028    -0.38700
O681        O  0.62201433  0.39180823  0.17716179    -0.39400
O682        O  0.68942821  0.38756051  0.15805683    -0.39500
C683        C  0.33556021  0.66069187  0.17516086    -0.11800
C684        C  0.32493231  0.68110537  0.16812381     0.05200
C685        C  0.31944528  0.68455626  0.14676808    -0.07100
C686        C  0.32842771  0.66797890  0.13293464    -0.07800
C687        C  0.34185729  0.64763573  0.13987239    -0.02400
C688        C  0.34289094  0.64394307  0.16142849     0.04500
N689        N  0.34991943  0.62329444  0.16975509     0.67000
H690        H  0.33797996  0.65768085  0.19169814     0.15900
H691        H  0.32668344  0.67149417  0.11646946     0.15600
N692        N  0.30770614  0.70502562  0.13884124     0.74700
O693        O  0.38596109  0.61970207  0.18230450    -0.38800
O694        O  0.31519078  0.60987200  0.16754521    -0.38700
O695        O  0.34338682  0.71689795  0.13335512    -0.39400
O696        O  0.26248619  0.70945286  0.13352509    -0.39500
C697        C  0.81794320  0.14496290  0.82592396    -0.11800
C698        C  0.81522121  0.15008204  0.84705025     0.05200
C699        C  0.81517017  0.17171937  0.85259487    -0.07100
C700        C  0.81638871  0.18726161  0.83726771    -0.07800
C701        C  0.81918121  0.18196189  0.81634799    -0.02400
C702        C  0.82017997  0.16056622  0.81070374     0.04500
N703        N  0.82116379  0.15445280  0.78949386     0.67000
H704        H  0.81725790  0.12863895  0.82091236     0.15900
H705        H  0.81642059  0.20374797  0.84181266     0.15600
N706        N  0.81593237  0.17838522  0.87363011     0.74700
O707        O  0.86219731  0.14778040  0.78167489    -0.38800
O708        O  0.77979298  0.15233392  0.77971013    -0.38700
O709        O  0.85737880  0.17787442  0.88361751    -0.39400
O710        O  0.77840261  0.18855219  0.88078474    -0.39500
C711        C  0.90045965  0.22158167  0.73750876    -0.11800
C712        C  0.90972207  0.21861852  0.75866935     0.05200
C713        C  0.96088504  0.21710148  0.76568269    -0.07100
C714        C  0.00106660  0.21787799  0.75150311    -0.07800
C715        C  0.99147818  0.22048164  0.73036387    -0.02400
C716        C  0.94057670  0.22275392  0.72345215     0.04500
N717        N  0.92912847  0.22676063  0.70222031     0.67000
H718        H  0.86155747  0.22286944  0.73174369     0.15900
H719        H  0.04010780  0.21621210  0.75703411     0.15600
N720        N  0.97277278  0.21540212  0.78716496     0.74700
O721        O  0.90763479  0.21281755  0.69147508    -0.38800
O722        O  0.93193233  0.24528579  0.69537062    -0.38700
O723        O  0.99529058  0.19913471  0.79389773    -0.39400
O724        O  0.96910237  0.23145484  0.79855265    -0.39500
C725        C  0.14899573  0.26775645  0.70555084    -0.11800
C726        C  0.15928295  0.24620352  0.70265544     0.05200
C727        C  0.21039871  0.23966741  0.69927777    -0.07100
C728        C  0.24927868  0.25462153  0.69852326    -0.07800
C729        C  0.23864027  0.27610544  0.70115390    -0.02400
C730        C  0.18800349  0.28263516  0.70486641     0.04500
N731        N  0.17582437  0.30429804  0.70841327     0.67000
H732        H  0.11009341  0.27319917  0.70801654     0.15900
H733        H  0.28823635  0.24940437  0.69572401     0.15600
N734        N  0.22375606  0.21791184  0.69701938     0.74700
O735        O  0.15438387  0.31496695  0.69436921    -0.38800
O736        O  0.17790279  0.31156511  0.72651273    -0.38700
O737        O  0.24344106  0.21148810  0.68041875    -0.39400
O738        O  0.22454665  0.20611668  0.71265738    -0.39500
C739        C  0.57900131  0.36160946  0.80367235    -0.11800
C740        C  0.58119120  0.34072361  0.81048109     0.05200
C741        C  0.58700566  0.33669688  0.83170512    -0.07100
C742        C  0.59090611  0.35344419  0.84561745    -0.07800
C743        C  0.58974529  0.37453801  0.83897155    -0.02400
C744        C  0.58379990  0.37846159  0.81751724     0.04500
N745        N  0.58479077  0.39925295  0.80922914     0.67000
H746        H  0.57524639  0.36488873  0.78724816     0.15900
H747        H  0.59414982  0.34964586  0.86194061     0.15600
N748        N  0.58737025  0.31564615  0.83944382     0.74700
O749        O  0.62711065  0.40789390  0.80604749    -0.38800
O750        O  0.54483377  0.40705553  0.80126915    -0.38700
O751        O  0.62808892  0.30781124  0.84669756    -0.39400
O752        O  0.54572074  0.30636016  0.84227075    -0.39500
C753        C  0.64839163  0.25499929  0.78239972    -0.11800
C754        C  0.65996088  0.27624409  0.77938572     0.05200
C755        C  0.71146171  0.28208843  0.77760140    -0.07100
C756        C  0.75019251  0.26684636  0.77951993    -0.07800
C757        C  0.73890713  0.24547917  0.78256391    -0.02400
C758        C  0.68701110  0.23961573  0.78379120     0.04500
N759        N  0.67259408  0.21808873  0.78578046     0.67000
H760        H  0.60883526  0.25028818  0.78376756     0.15900
H761        H  0.78958369  0.27184109  0.77853447     0.15600
N762        N  0.72488087  0.30331814  0.77302087     0.74700
O763        O  0.64964355  0.21216324  0.80177152    -0.38800
O764        O  0.67371828  0.20622357  0.77017130    -0.38700
O765        O  0.75073690  0.31377957  0.78582674    -0.39400
O766        O  0.71835540  0.31029578  0.75497212    -0.39500
C767        C  0.50020780  0.30272247  0.73132318    -0.11800
C768        C  0.49145423  0.30378090  0.75263782     0.05200
C769        C  0.44065629  0.30439746  0.75975014    -0.07100
C770        C  0.40004560  0.30427076  0.74561220    -0.07800
C771        C  0.40872449  0.30346146  0.72430759    -0.02400
C772        C  0.45952329  0.30258782  0.71716630     0.04500
N773        N  0.47043462  0.30104577  0.69564464     0.67000
H774        H  0.53902285  0.30228675  0.72558906     0.15900
H775        H  0.36125042  0.30494812  0.75135237     0.15600
N776        N  0.42964988  0.30463173  0.78131118     0.74700
O777        O  0.48737616  0.31684696  0.68623506    -0.38800
O778        O  0.47356100  0.28312713  0.68731871    -0.38700
O779        O  0.40664798  0.32024029  0.78909784    -0.39400
O780        O  0.43521370  0.28799907  0.79172807    -0.39500
C781        C  0.05263262  0.17644353  0.63312009    -0.11800
C782        C  0.05260937  0.15496703  0.63844380     0.05200
C783        C  0.06217099  0.14933629  0.65925966    -0.07100
C784        C  0.06876505  0.16505700  0.67416726    -0.07800
C785        C  0.06746837  0.18637462  0.66876435    -0.02400
C786        C  0.06002723  0.19205958  0.64802224     0.04500
N787        N  0.05635510  0.21367610  0.64211720     0.67000
H788        H  0.04457656  0.18139444  0.61740112     0.15900
H789        H  0.07518578  0.16058423  0.69016277     0.15600
N790        N  0.06643994  0.12782853  0.66552815     0.74700
O791        O  0.09440864  0.22261288  0.63435327    -0.38800
O792        O  0.01331279  0.22272605  0.64158844    -0.38700
O793        O  0.10612838  0.11740478  0.66113831    -0.39400
O794        O  0.03579795  0.12064087  0.67862457    -0.39500
C795        C  0.08682955  0.15354624  0.30707024    -0.11800
C796        C  0.09349919  0.17483403  0.31179382     0.05200
C797        C  0.09226893  0.18123829  0.33256632    -0.07100
C798        C  0.08165057  0.16656918  0.34801365    -0.07800
C799        C  0.07264528  0.14523471  0.34337826    -0.02400
C800        C  0.07758188  0.13869179  0.32252447     0.04500
N801        N  0.07455462  0.11707798  0.31663033     0.67000
H802        H  0.08910726  0.14835185  0.29109678     0.15900
H803        H  0.07870539  0.17238207  0.36376125     0.15600
N804        N  0.09845127  0.20284135  0.33809429     0.74700
O805        O  0.03998653  0.11128926  0.30429993    -0.38800
O806        O  0.11164971  0.10484258  0.32040631    -0.38700
O807        O  0.05968599  0.21462696  0.33979199    -0.39400
O808        O  0.14095123  0.20903297  0.34485584    -0.39500
C809        C  0.83245207  0.86480043  0.33740437    -0.11800
C810        C  0.83592440  0.85972472  0.35846260     0.05200
C811        C  0.83374500  0.83827007  0.36433507    -0.07100
C812        C  0.82745335  0.82265353  0.34927004    -0.07800
C813        C  0.82468373  0.82787511  0.32834271    -0.02400
C814        C  0.82689509  0.84914535  0.32241869     0.04500
N815        N  0.82203230  0.85508578  0.30123437     0.67000
H816        H  0.83273318  0.88109622  0.33243900     0.15900
H817        H  0.82701131  0.80622729  0.35387049     0.15600
N818        N  0.84086228  0.83189361  0.38530160     0.74700
O819        O  0.77842405  0.85599234  0.29292951    -0.38800
O820        O  0.85986058  0.86245930  0.29185990    -0.38700
O821        O  0.80653442  0.82163457  0.39425447    -0.39400
O822        O  0.88437235  0.83329706  0.39358030    -0.39500
C823        C  0.31465523  0.37167172  0.65086538    -0.11800
C824        C  0.33470355  0.36503217  0.63184563     0.05200
C825        C  0.34479130  0.34330100  0.62879891    -0.07100
C826        C  0.33677267  0.32904989  0.64487144    -0.07800
C827        C  0.31904829  0.33594334  0.66403920    -0.02400
C828        C  0.30669446  0.35731990  0.66688215     0.04500
N829        N  0.28663661  0.36465146  0.68604412     0.67000
H830        H  0.30572585  0.38818552  0.65343803     0.15900
H831        H  0.34676877  0.31256952  0.64268095     0.15600
N832        N  0.36699131  0.33556037  0.61017941     0.74700
O833        O  0.31615794  0.37233549  0.69944664    -0.38800
O834        O  0.23901619  0.36624652  0.68833466    -0.38700
O835        O  0.41473796  0.33607264  0.60801915    -0.39400
O836        O  0.34065036  0.32447312  0.59806498    -0.39500
C837        C  0.38670694  0.32947447  0.34197517    -0.11800
C838        C  0.37804022  0.35066464  0.33660786     0.05200
C839        C  0.36315928  0.35552747  0.31615504    -0.07100
C840        C  0.35901287  0.33944044  0.30148361    -0.07800
C841        C  0.36871165  0.31844257  0.30682514    -0.02400
C842        C  0.38250211  0.31341853  0.32724895     0.04500
N843        N  0.39530682  0.29227491  0.33291413     0.67000
H844        H  0.39915143  0.32537942  0.35745795     0.15900
H845        H  0.34764593  0.34333443  0.28580687     0.15600
N846        N  0.35040623  0.37658523  0.31018369     0.74700
O847        O  0.43885984  0.28490659  0.32866049    -0.38800
O848        O  0.36676065  0.28230880  0.34496885    -0.38700
O849        O  0.37563567  0.38548688  0.29623826    -0.39400
O850        O  0.30873715  0.38466658  0.31597668    -0.39500
C851        C  0.59428579  0.63942773  0.32388600    -0.11800
C852        C  0.55758094  0.64180237  0.33942106     0.05200
C853        C  0.52817648  0.66046100  0.34030013    -0.07100
C854        C  0.53516786  0.67617046  0.32552886    -0.07800
C855        C  0.57186543  0.67381002  0.31004958    -0.02400
C856        C  0.60216549  0.65542047  0.30942707     0.04500
N857        N  0.64077277  0.65275998  0.29418246     0.67000
H858        H  0.61777552  0.62529729  0.32326906     0.15900
H859        H  0.51162646  0.69029755  0.32606839     0.15600
N860        N  0.48973342  0.66332336  0.35559183     0.74700
O861        O  0.68549888  0.65885712  0.29796519    -0.38800
O862        O  0.63264856  0.64104647  0.27881201    -0.38700
O863        O  0.49651389  0.67639573  0.36998826    -0.39400
O864        O  0.44596775  0.65580167  0.35261823    -0.39500
C865        C  0.83830663  0.83439681  0.64855096    -0.11800
C866        C  0.83900044  0.84019859  0.66936711     0.05200
C867        C  0.84281338  0.86164420  0.67462548    -0.07100
C868        C  0.84406282  0.87684511  0.65901226    -0.07800
C869        C  0.84178333  0.87114024  0.63804627    -0.02400
C870        C  0.84047398  0.84947092  0.63292024     0.04500
N871        N  0.84316759  0.84234772  0.61202900     0.67000
H872        H  0.83700851  0.81778984  0.64435961     0.15900
H873        H  0.84465735  0.89337350  0.66350275     0.15600
N874        N  0.84245243  0.86829083  0.69569390     0.74700
O875        O  0.88386126  0.84462732  0.60203950    -0.38800
O876        O  0.80859022  0.83072735  0.60482838    -0.38700
O877        O  0.88181859  0.87639130  0.70352007    -0.39400
O878        O  0.80081870  0.86928969  0.70530413    -0.39500
C879        C  0.06571105  0.85387485  0.82639248    -0.11800
C880        C  0.05277271  0.83261670  0.82769535     0.05200
C881        C  0.02825036  0.82517229  0.84540878    -0.07100
C882        C  0.01497787  0.83920605  0.86116529    -0.07800
C883        C  0.02564222  0.86079315  0.85957553    -0.02400
C884        C  0.05295894  0.86796415  0.84224766     0.04500
N885        N  0.06870821  0.88936772  0.84065271     0.67000
H886        H  0.08535275  0.85959300  0.81285803     0.15900
H887        H  0.99385466  0.83323828  0.87419617     0.15600
N888        N  0.01456666  0.80354773  0.84714312     0.74700
O889        O  0.10337908  0.89610653  0.85243541    -0.38800
O890        O  0.05415895  0.90040061  0.82550649    -0.38700
O891        O  0.04161085  0.79124508  0.85798622    -0.39400
O892        O  0.97178873  0.79755277  0.84050292    -0.39500
C893        C  0.00182671  0.80325432  0.74103706    -0.11800
C894        C  0.98803223  0.80181757  0.76185726     0.05200
C895        C  0.93581105  0.79987925  0.76679542    -0.07100
C896        C  0.89886538  0.80018929  0.75105147    -0.07800
C897        C  0.91271503  0.80195473  0.73026309    -0.02400
C898        C  0.96503043  0.80308405  0.72530702     0.04500
N899        N  0.98154958  0.80351952  0.70434451     0.67000
H900        H  0.04173325  0.80470860  0.73688040     0.15900
H901        H  0.85882160  0.79922937  0.75515320     0.15600
N902        N  0.91975115  0.79702198  0.78763308     0.74700
O903        O  0.00367251  0.81959513  0.69752616    -0.38800
O904        O  0.98328698  0.78661356  0.69413638    -0.38700
O905        O  0.88965552  0.81019097  0.79578555    -0.39400
O906        O  0.92915900  0.77983622  0.79668605    -0.39500
C907        C  0.36177949  0.67393574  0.80640169    -0.11800
C908        C  0.35088417  0.69423595  0.81367911     0.05200
C909        C  0.34572029  0.69743035  0.83507572    -0.07100
C910        C  0.35281917  0.68052979  0.84865394    -0.07800
C911        C  0.36525808  0.66018175  0.84152641    -0.02400
C912        C  0.36835088  0.65694254  0.81990655     0.04500
N913        N  0.37652347  0.63652152  0.81120958     0.67000
H914        H  0.36423343  0.67111221  0.78982604     0.15900
H915        H  0.35050316  0.68380990  0.86516699     0.15600
N916        N  0.33612995  0.71795382  0.84333719     0.74700
O917        O  0.34105635  0.62326661  0.81150077    -0.38800
O918        O  0.41497618  0.63313178  0.80002709    -0.38700
O919        O  0.29531275  0.72164832  0.85295066    -0.39400
O920        O  0.37135718  0.73131902  0.84371889    -0.39500
C921        C  0.25248991  0.77591892  0.78575189    -0.11800
C922        C  0.24709579  0.75398441  0.78463469     0.05200
C923        C  0.19770698  0.74539876  0.78558225    -0.07100
C924        C  0.15520774  0.75869362  0.78762650    -0.07800
C925        C  0.16052796  0.78057584  0.78889129    -0.02400
C926        C  0.20983906  0.78922941  0.78803356     0.04500
N927        N  0.21714456  0.81145669  0.78906814     0.67000
H928        H  0.29032961  0.78276625  0.78526313     0.15900
H929        H  0.11741933  0.75180945  0.78825070     0.15600
N930        N  0.18993759  0.72322751  0.78401528     0.74700
O931        O  0.22975139  0.81977242  0.80600630    -0.38800
O932        O  0.22200320  0.82177451  0.77259947    -0.38700
O933        O  0.17328509  0.71326626  0.79934613    -0.39400
O934        O  0.18988668  0.71458502  0.76648807    -0.39500
C935        C  0.56770226  0.69748993  0.63996603    -0.11800
C936        C  0.56887381  0.69240714  0.66097565     0.05200
C937        C  0.56617727  0.67111586  0.66682242    -0.07100
C938        C  0.56192802  0.65540984  0.65172853    -0.07800
C939        C  0.55999294  0.66035486  0.63057215    -0.02400
C940        C  0.56258541  0.68185474  0.62479868     0.04500
N941        N  0.55721901  0.68833143  0.60379444     0.67000
H942        H  0.56877998  0.71390746  0.63530232     0.15900
H943        H  0.56122647  0.63912374  0.65675985     0.15600
N944        N  0.56963677  0.66514612  0.68802952     0.74700
O945        O  0.51389526  0.68787826  0.59523570    -0.38800
O946        O  0.59297850  0.69807211  0.59520479    -0.38700
O947        O  0.53090714  0.65810466  0.69704501    -0.39400
O948        O  0.61283977  0.66352962  0.69658909    -0.39500
C949        C  0.70683962  0.74456485  0.69405923    -0.11800
C950        C  0.65800230  0.75391370  0.69315117     0.05200
C951        C  0.65373710  0.77604705  0.69463955    -0.07100
C952        C  0.69761744  0.78820249  0.69714279    -0.07800
C953        C  0.74644097  0.77889026  0.69769831    -0.02400
C954        C  0.75081822  0.75680911  0.69613619     0.04500
N955        N  0.79966212  0.74667190  0.69549172     0.67000
H956        H  0.71095460  0.72761344  0.69303048     0.15900
H957        H  0.69359346  0.80516722  0.69810372     0.15600
N958        N  0.60549151  0.78653906  0.69247485     0.74700
O959        O  0.81521243  0.73613369  0.71080944    -0.38800
O960        O  0.82268223  0.74506242  0.67852705    -0.38700
O961        O  0.58871795  0.79783027  0.70700260    -0.39400
O962        O  0.58435419  0.78755136  0.67496047    -0.39500
C963        C  0.50188515  0.73496065  0.74124201    -0.11800
C964        C  0.48855351  0.73082648  0.72059168     0.05200
C965        C  0.43634071  0.72796321  0.71562860    -0.07100
C966        C  0.39954756  0.72857292  0.73126461    -0.07800
C967        C  0.41337075  0.73232394  0.75184340    -0.02400
C968        C  0.46496743  0.73592822  0.75671658     0.04500
N969        N  0.48029678  0.74087316  0.77733531     0.67000
H970        H  0.54155708  0.73711155  0.74556798     0.15900
H971        H  0.35984757  0.72579382  0.72733708     0.15600
N972        N  0.41980778  0.72481503  0.69480395     0.74700
O973        O  0.50470242  0.72743839  0.78789976    -0.38800
O974        O  0.47713723  0.75963951  0.78361730    -0.38700
O975        O  0.39712778  0.70809583  0.68991275    -0.39400
O976        O  0.42014417  0.74000780  0.68229946    -0.39500
loop_ 
_geom_bond_atom_site_label_1 
_geom_bond_atom_site_label_2 
_geom_bond_distance 
_geom_bond_site_symmetry_2 
_ccdc_geom_bond_type 
C1            C2   1.404       .  A
C1            C6   1.405       .  A
C1          C936   1.485       .  S
C2            C3   1.406       .  A
C2            H7   1.083       .  S
C3            C4   1.407       .  A
C3          C950   1.492       .  S
C4            C5   1.409       .  A
C4            H8   1.082       .  S
C5            C6   1.407       .  A
C5          C964   1.497       .  S
C6            H9   1.083       .  S
C10          C11   1.402       .  A
C10          C15   1.402       .  A
C10         C908   1.484       .  S
C11          C12   1.405       .  A
C11          H16   1.085       .  S
C12          C13   1.409       .  A
C12         C922   1.486       .  S
C13          C14   1.407       .  A
C13          H17   1.082       .  S
C14          C15   1.402       .  A
C14         C967   1.484       .  S
C15          H18   1.083       .  S
C19          C20   1.402       .  A
C19          C24   1.401       .  A
C19         C880   1.473       .  S
C20          C21   1.404       .  A
C20          H25   1.084       .  S
C21          C22   1.407       .  A
C21         C925   1.484       .  S
C22          C23   1.407       .  A
C22          H26   1.082       .  S
C23          C24   1.403       .  A
C23         C894   1.490   1_455  S
C24          H27   1.084   1_455  S
C28          C29   1.400       .  A
C28          C33   1.400       .  A
C28         C866   1.479       .  S
C29          C30   1.402       .  A
C29          H34   1.084       .  S
C30          C31   1.409       .  A
C30         C953   1.489       .  S
C31          C32   1.412       .  A
C31          H35   1.082       .  S
C32          C33   1.406       .  A
C32         C897   1.489       .  S
C33          H36   1.085       .  S
N37          N38   1.321       .  A
N37          C41   1.349       .  A
N37         Cu45   2.078       .  S
N38          C39   1.341       .  A
N38         Cu44   2.066       .  S
C39          C40   1.382       .  A
C39          H42   1.081       .  S
C40          C41   1.387       .  A
C40          C88   1.474       .  S
C41          H43   1.080       .  S
Cu44         N47   2.065       .  S
Cu45         N55   2.079       .  S
Cu46         N48   2.078       .  S
Cu46         N54   2.080       .  S
N47          N48   1.321       .  A
N47          C51   1.340       .  A
N48          C49   1.349       .  A
C49          C50   1.387       .  A
C49          H52   1.082       .  S
C50          C51   1.382       .  A
C50          C74   1.474       .  S
C51          H53   1.082       .  S
N54          N55   1.325       .  A
N54          C58   1.345       .  A
N55          C56   1.345       .  A
C56          C57   1.383       .  A
C56          H59   1.082       .  S
C57          C58   1.382       .  A
C57         C852   1.476       .  S
C58          H60   1.082       .  S
N61          N62   1.320       .  A
N61          C65   1.350       .  A
N61         Cu69   2.082       .  S
N62          C63   1.340       .  A
N62         Cu68   2.058       .  S
C63          C64   1.380       .  A
C63          H66   1.080       .  S
C64          C65   1.388       .  A
C64         C112   1.473       .  S
C65          H67   1.081       .  S
Cu68         N71   2.057       .  S
Cu69         N79   2.084       .  S
Cu70         N72   2.083       .  S
Cu70         N78   2.085       .  S
N71          N72   1.320       .  A
N71          C75   1.340       .  A
N72          C73   1.350       .  A
C73          C74   1.389       .  A
C73          H76   1.082       .  S
C74          C75   1.381       .  A
C75          H77   1.082       .  S
N78          N79   1.324       .  A
N78          C82   1.345       .  A
N79          C80   1.345       .  A
C80          C81   1.386       .  A
C80          H83   1.081       .  S
C81          C82   1.386       .  A
C81         C838   1.485       .  S
C82          H84   1.082       .  S
N85          N86   1.320       .  A
N85          C89   1.349       .  A
N85         Cu93   2.080       .  S
N86          C87   1.341       .  A
N86         Cu92   2.058       .  S
C87          C88   1.381       .  A
C87          H90   1.080       .  S
C88          C89   1.388       .  A
C89          H91   1.081       .  S
Cu92         N95   2.058       .  S
Cu93        N103   2.083       .  S
Cu94         N96   2.098       .  S
Cu94        N102   2.101       .  S
N95          N96   1.321       .  A
N95          C99   1.338       .  A
N96          C97   1.354       .  A
C97          C98   1.392       .  A
C97         H100   1.082       .  S
C98          C99   1.380       .  A
C98         C122   1.479       .  S
C99         H101   1.082       .  S
N102        N103   1.324       .  A
N102        C106   1.347       .  A
N103        C104   1.345       .  A
C104        C105   1.389       .  A
C104        H107   1.083       .  S
C105        C106   1.392       .  A
C105        C939   1.498       .  S
C106        H108   1.081       .  S
N109        N110   1.320       .  A
N109        C113   1.350       .  A
N109       Cu117   2.074       .  S
N110        C111   1.340       .  A
N110       Cu116   2.063       .  S
C111        C112   1.382       .  A
C111        H114   1.081       .  S
C112        C113   1.387       .  A
C113        H115   1.081       .  S
Cu116       N119   2.062       .  S
Cu117       N127   2.077       .  S
Cu118       N120   2.091       .  S
Cu118       N126   2.093       .  S
N119        N120   1.321       .  A
N119        C123   1.338       .  A
N120        C121   1.354       .  A
C121        C122   1.391       .  A
C121        H124   1.082       .  S
C122        C123   1.382       .  A
C123        H125   1.082       .  S
N126        N127   1.325       .  A
N126        C130   1.346       .  A
N127        C128   1.344       .  A
C128        C129   1.384       .  A
C128        H131   1.083       .  S
C129        C130   1.387       .  A
C129        C824   1.487       .  S
C130        H132   1.082       .  S
N133        N134   1.319       .  A
N133        C137   1.346       .  A
N133       Cu141   2.064       .  S
N134        C135   1.341       .  A
N134       Cu140   2.060       .  S
C135        C136   1.383       .  A
C135        H138   1.081       .  S
C136        C137   1.385       .  A
C136        C184   1.470       .  S
C137        H139   1.082       .  S
Cu140       N143   2.061       .  S
Cu141       N151   2.066       .  S
Cu142       N144   2.088       .  S
Cu142       N150   2.090       .  S
N143        N144   1.322       .  A
N143        C147   1.340   1_565  A
N144        C145   1.351       .  A
C145        C146   1.388   1_565  A
C145        H148   1.083       .  S
C146        C147   1.380       .  A
C146        C170   1.474       .  S
C147        H149   1.082       .  S
N150        N151   1.323       .  A
N150        C154   1.346       .  A
N151        C152   1.342       .  A
C152        C153   1.384       .  A
C152        H155   1.082       .  S
C153        C154   1.390       .  A
C153        C810   1.488       .  S
C154        H156   1.081       .  S
N157        N158   1.321       .  A
N157        C161   1.350       .  A
N157       Cu165   2.084       .  S
N158        C159   1.340       .  A
N158       Cu164   2.061       .  S
C159        C160   1.381       .  A
C159        H162   1.082       .  S
C160        C161   1.388       .  A
C160        C208   1.474       .  S
C161        H163   1.082       .  S
Cu164       N167   2.062       .  S
Cu165       N175   2.086   1_655  S
Cu166       N168   2.080       .  S
Cu166       N174   2.082   1_655  S
N167        N168   1.320       .  A
N167        C171   1.340       .  A
N168        C169   1.350       .  A
C169        C170   1.387       .  A
C169        H172   1.081       .  S
C170        C171   1.382       .  A
C171        H173   1.082       .  S
N174        N175   1.322       .  A
N174        C178   1.344       .  A
N175        C176   1.344       .  A
C176        C177   1.393       .  A
C176        H179   1.083       .  S
C177        C178   1.392       .  A
C177        C799   1.502       .  S
C178        H180   1.084       .  S
N181        N182   1.320       .  A
N181        C185   1.346       .  A
N181       Cu189   2.068       .  S
N182        C183   1.340       .  A
N182       Cu188   2.058       .  S
C183        C184   1.382       .  A
C183        H186   1.081       .  S
C184        C185   1.386       .  A
C185        H187   1.082       .  S
Cu188       N191   2.060       .  S
Cu189       N199   2.070       .  S
Cu190       N192   2.082       .  S
Cu190       N198   2.083       .  S
N191        N192   1.322       .  A
N191        C195   1.341   1_565  A
N192        C193   1.349   1_565  A
C193        C194   1.387       .  A
C193        H196   1.082       .  S
C194        C195   1.380       .  A
C194        C218   1.471       .  S
C195        H197   1.082       .  S
N198        N199   1.322       .  A
N198        C202   1.346       .  A
N199        C200   1.341       .  A
C200        C201   1.386       .  A
C200        H203   1.088       .  S
C201        C202   1.390       .  A
C201        C869   1.490       .  S
C202        H204   1.081       .  S
N205        N206   1.321       .  A
N205        C209   1.349       .  A
N205       Cu213   2.080       .  S
N206        C207   1.341       .  A
N206       Cu212   2.065       .  S
C207        C208   1.382       .  A
C207        H210   1.082       .  S
C208        C209   1.387       .  A
C209        H211   1.082       .  S
Cu212       N215   2.065       .  S
Cu213       N223   2.081   1_655  S
Cu214       N216   2.071       .  S
Cu214       N222   2.073       .  S
N215        N216   1.321       .  A
N215        C219   1.341       .  A
N216        C217   1.347       .  A
C217        C218   1.385       .  A
C217        H220   1.083       .  S
C218        C219   1.382       .  A
C219        H221   1.082       .  S
N222        N223   1.322   1_655  A
N222        C226   1.343   1_655  A
N223        C224   1.344       .  A
C224        C225   1.389       .  A
C224        H227   1.081       .  S
C225        C226   1.388       .  A
C225        C782   1.490       .  S
C226        H228   1.083       .  S
C229        C230   1.403       .  A
C229        C234   1.402       .  A
C229        C740   1.483       .  S
C230        C231   1.406       .  A
C230        H235   1.083       .  S
C231        C232   1.408       .  A
C231        C768   1.488       .  S
C232        C233   1.407       .  A
C232        H236   1.083       .  S
C233        C234   1.403       .  A
C233        C754   1.485       .  S
C234        H237   1.085       .  S
C238        C239   1.400       .  A
C238        C243   1.402       .  A
C238        C827   1.474       .  S
C239        C240   1.404       .  A
C239        H244   1.084       .  S
C240        C241   1.407       .  A
C240        C729   1.483       .  S
C241        C242   1.408       .  A
C241        H245   1.083       .  S
C242        C243   1.403       .  A
C242        C771   1.487       .  S
C243        H246   1.084       .  S
C247        C248   1.404       .  A
C247        C252   1.404       .  A
C247        C701   1.485       .  S
C248        C249   1.406       .  A
C248        H253   1.084       .  S
C249        C250   1.408       .  A
C249        C712   1.493       .  S
C250        C251   1.409       .  A
C250        H254   1.082       .  S
C251        C252   1.407       .  A
C251        C757   1.497       .  S
C252        H255   1.082       .  S
C256        C257   1.397       .  A
C256        C261   1.401       .  A
C256        C785   1.475       .  S
C257        C258   1.400       .  A
C257        H262   1.084       .  S
C258        C259   1.408       .  A
C258        C715   1.485   1_455  S
C259        C260   1.413       .  A
C259        H263   1.082       .  S
C260        C261   1.407       .  A
C260        C726   1.493       .  S
C261        H264   1.084       .  S
N265        N266   1.320       .  A
N265        C269   1.352       .  A
N265       Cu273   2.084       .  S
N266        C267   1.338       .  A
N266       Cu272   2.059       .  S
C267        C268   1.381       .  A
C267        H270   1.082       .  S
C268        C269   1.389       .  A
C268        C316   1.475   1_554  S
C269        H271   1.082       .  S
Cu272       N275   2.058       .  S
Cu273       N283   2.086       .  S
Cu274       N276   2.085       .  S
Cu274       N282   2.089       .  S
N275        N276   1.319       .  A
N275        C279   1.339       .  A
N276        C277   1.352       .  A
C277        C278   1.390       .  A
C277        H280   1.082       .  S
C278        C279   1.382       .  A
C278        C302   1.477       .  S
C279        H281   1.082       .  S
N282        N283   1.324       .  A
N282        C286   1.343       .  A
N283        C284   1.345       .  A
C284        C285   1.390       .  A
C284        H287   1.083       .  S
C285        C286   1.390       .  A
C285        C687   1.497       .  S
C286        H288   1.090       .  S
N289        N290   1.320       .  A
N289        C293   1.352       .  A
N289       Cu297   2.085       .  S
N290        C291   1.339       .  A
N290       Cu296   2.059       .  S
C291        C292   1.381   1_554  A
C291        H294   1.081       .  S
C292        C293   1.390   1_556  A
C292        C340   1.477       .  S
C293        H295   1.082       .  S
Cu296       N299   2.059       .  S
Cu297       N307   2.088       .  S
Cu298       N300   2.089       .  S
Cu298       N306   2.092       .  S
N299        N300   1.320       .  A
N299        C303   1.339       .  A
N300        C301   1.352       .  A
C301        C302   1.390       .  A
C301        H304   1.082       .  S
C302        C303   1.381       .  A
C303        H305   1.082       .  S
N306        N307   1.325       .  A
N306        C310   1.347       .  A
N307        C308   1.345       .  A
C308        C309   1.386       .  A
C308        H311   1.079       .  S
C309        C310   1.388       .  A
C309        C670   1.489       .  S
C310        H312   1.084       .  S
N313        N314   1.321       .  A
N313        C317   1.352       .  A
N313       Cu321   2.088       .  S
N314        C315   1.338       .  A
N314       Cu320   2.058       .  S
C315        C316   1.380       .  A
C315        H318   1.081       .  S
C316        C317   1.390       .  A
C317        H319   1.082       .  S
Cu320       N323   2.058       .  S
Cu321       N331   2.089       .  S
Cu322       N324   2.072       .  S
Cu322       N330   2.074       .  S
N323        N324   1.319       .  A
N323        C327   1.341       .  A
N324        C325   1.348       .  A
C325        C326   1.387       .  A
C325        H328   1.082       .  S
C326        C327   1.382       .  A
C326        C350   1.472       .  S
C327        H329   1.082       .  S
N330        N331   1.323       .  A
N330        C334   1.342       .  A
N331        C332   1.345       .  A
C332        C333   1.393       .  A
C332        H335   1.084       .  S
C333        C334   1.389       .  A
C333        C911   1.497       .  S
C334        H336   1.085       .  S
N337        N338   1.320       .  A
N337        C341   1.352       .  A
N337       Cu345   2.086       .  S
N338        C339   1.339       .  A
N338       Cu344   2.061       .  S
C339        C340   1.381       .  A
C339        H342   1.082       .  S
C340        C341   1.390       .  A
C341        H343   1.082       .  S
Cu344       N347   2.061       .  S
Cu345       N355   2.088       .  S
Cu346       N348   2.076       .  S
Cu346       N354   2.078       .  S
N347        N348   1.321       .  A
N347        C351   1.341       .  A
N348        C349   1.348       .  A
C349        C350   1.386       .  A
C349        H352   1.082       .  S
C350        C351   1.382       .  A
C351        H353   1.082       .  S
N354        N355   1.322       .  A
N354        C358   1.344       .  A
N355        C356   1.343       .  A
C356        C357   1.392       .  A
C356        H359   1.083       .  S
C357        C358   1.391       .  A
C357        C743   1.499       .  S
C358        H360   1.083       .  S
C361        C362   1.397       .  A
C361        C366   1.399       .  A
C361        C855   1.475       .  S
C362        C363   1.401       .  A
C362        H367   1.084       .  S
C363        C364   1.405       .  A
C363        C659   1.483       .  S
C364        C365   1.411       .  A
C364        H368   1.082       .  S
C365        C366   1.411       .  A
C365        C642   1.497       .  S
C366        H369   1.083       .  S
C370        C371   1.403       .  A
C370        C375   1.403       .  A
C370        C684   1.484       .  S
C371        C372   1.407       .  A
C371        H376   1.084       .  S
C372        C373   1.405       .  A
C372        C628   1.480       .  S
C373        C374   1.402       .  A
C373        H377   1.084       .  S
C374        C375   1.402       .  A
C374        C656   1.481       .  S
C375        H378   1.083       .  S
C379        C380   1.399       .  A
C379        C384   1.401       .  A
C379        C813   1.476       .  S
C380        C381   1.403       .  A
C380        H385   1.084       .  S
C381        C382   1.404       .  A
C381        C614   1.489       .  S
C382        C383   1.407       .  A
C382        H386   1.082       .  S
C383        C384   1.406       .  A
C383        C645   1.486       .  S
C384        H387   1.083       .  S
C388        C389   1.398       .  A
C388        C393   1.397       .  A
C388        C600   1.470       .  S
C389        C390   1.402       .  A
C389        H394   1.084   1_455  S
C390        C391   1.407       .  A
C390        C617   1.486   1_455  S
C391        C392   1.406       .  A
C391        H395   1.083       .  S
C392        C393   1.405       .  A
C392        C631   1.479       .  S
C393        H396   1.083       .  S
C397        C398   1.400       .  A
C397        C402   1.398       .  A
C397        C841   1.475       .  S
C398        C399   1.406       .  A
C398        H403   1.085       .  S
C399        C400   1.408       .  A
C399        C575   1.484       .  S
C400        C401   1.408       .  A
C400        H404   1.083       .  S
C401        C402   1.404       .  A
C401        C586   1.485       .  S
C402        H405   1.084       .  S
C406        C407   1.400       .  A
C406        C411   1.402       .  A
C406        C673   1.477       .  S
C407        C408   1.405       .  A
C407        H412   1.084       .  S
C408        C409   1.407       .  A
C408        C589   1.487       .  S
C409        C410   1.407       .  A
C409        H413   1.082       .  S
C410        C411   1.407       .  A
C410        C558   1.490       .  S
C411        H414   1.084       .  S
C415        C416   1.404       .  A
C415        C420   1.404       .  A
C415        C796   1.483       .  S
C416        C417   1.405       .  A
C416        H421   1.084       .  S
C417        C418   1.406       .  A
C417        C572   1.486       .  S
C418        C419   1.407       .  A
C418        H422   1.083       .  S
C419        C420   1.405       .  A
C419        C547   1.493       .  S
C420        H423   1.083       .  S
C424        C425   1.401       .  A
C424        C429   1.398       .  A
C424        C530   1.473       .  S
C425        C426   1.406       .  A
C425        H430   1.084       .  S
C426        C427   1.408       .  A
C426        C561   1.490       .  S
C427        C428   1.408       .  A
C427        H431   1.083       .  S
C428        C429   1.403       .  A
C428        C544   1.481       .  S
C429        H432   1.084       .  S
N433        N434   1.321       .  A
N433        C437   1.350       .  A
N433       Cu441   2.079       .  S
N434        C435   1.339       .  A
N434       Cu440   2.062       .  S
C435        C436   1.381       .  A
C435        H438   1.082       .  S
C436        C437   1.387       .  A
C436        C460   1.473       .  S
C437        H439   1.082       .  S
Cu440       N443   2.063       .  S
Cu441       N451   2.080       .  S
Cu442       N444   2.070       .  S
Cu442       N450   2.071       .  S
N443        N444   1.320       .  A
N443        C447   1.343       .  A
N444        C445   1.346       .  A
C445        C446   1.385       .  A
C445        H448   1.080       .  S
C446        C447   1.383       .  A
C446        C494   1.472   1_554  S
C447        H449   1.083       .  S
N450        N451   1.323       .  A
N450        C454   1.344       .  A
N451        C452   1.344       .  A
C452        C453   1.386       .  A
C452        H455   1.081       .  S
C453        C454   1.385       .  A
C453        C603   1.483       .  S
C454        H456   1.082       .  S
N457        N458   1.321       .  A
N457        C461   1.350       .  A
N457       Cu465   2.081       .  S
N458        C459   1.339       .  A
N458       Cu464   2.065       .  S
C459        C460   1.381   1_545  A
C459        H462   1.082   1_545  S
C460        C461   1.387   1_565  A
C461        H463   1.082       .  S
Cu464       N467   2.065       .  S
Cu465       N475   2.083       .  S
Cu466       N468   2.074       .  S
Cu466       N474   2.075       .  S
N467        N468   1.320       .  A
N467        C471   1.342       .  A
N468        C469   1.348       .  A
C469        C470   1.386       .  A
C469        H472   1.083       .  S
C470        C471   1.383       .  A
C470        C518   1.473   1_554  S
C471        H473   1.079       .  S
N474        N475   1.324       .  A
N474        C478   1.343       .  A
N475        C476   1.346       .  A
C476        C477   1.386       .  A
C476        H479   1.083       .  S
C477        C478   1.383       .  A
C477        C533   1.482       .  S
C478        H480   1.081       .  S
N481        N482   1.322       .  A
N481        C485   1.350       .  A
N481       Cu489   2.081       .  S
N482        C483   1.341       .  A
N482       Cu488   2.070       .  S
C483        C484   1.383       .  A
C483        H486   1.082       .  S
C484        C485   1.386       .  A
C484        C508   1.475   1_565  S
C485        H487   1.082       .  S
Cu488       N491   2.070       .  S
Cu489       N499   2.082       .  S
Cu490       N492   2.071       .  S
Cu490       N498   2.073       .  S
N491        N492   1.321       .  A
N491        C495   1.344       .  A
N492        C493   1.345       .  A
C493        C494   1.384       .  A
C493        H496   1.082       .  S
C494        C495   1.384       .  A
C495        H497   1.080       .  S
N498        N499   1.322       .  A
N498        C502   1.344       .  A
N499        C500   1.345       .  A
C500        C501   1.388   1_655  A
C500        H503   1.082       .  S
C501        C502   1.387   1_455  A
C501        C883   1.487       .  S
C502        H504   1.082       .  S
N505        N506   1.322       .  A
N505        C509   1.351       .  A
N505       Cu513   2.092       .  S
N506        C507   1.339       .  A
N506       Cu512   2.056       .  S
C507        C508   1.379       .  A
C507        H510   1.082       .  S
C508        C509   1.390       .  A
C509        H511   1.082       .  S
Cu512       N515   2.057       .  S
Cu513       N523   2.094       .  S
Cu514       N516   2.079       .  S
Cu514       N522   2.081       .  S
N515        N516   1.320       .  A
N515        C519   1.341       .  A
N516        C517   1.349       .  A
C517        C518   1.388       .  A
C517        H520   1.080       .  S
C518        C519   1.381       .  A
C519        H521   1.083       .  S
N522        N523   1.322       .  A
N522        C526   1.344       .  A
N523        C524   1.346       .  A
C524        C525   1.394       .  A
C524        H527   1.082       .  S
C525        C526   1.391       .  A
C525        C698   1.502       .  S
C526        H528   1.084       .  S
C529        C530   1.400       .  A
C529        C534   1.400       .  A
C529        H536   1.087       .  S
C530        C531   1.405       .  A
C531        C532   1.400       .  A
C531        N538   1.428       .  S
C532        C533   1.406       .  A
C532        H537   1.087       .  S
C533        C534   1.414       .  A
C534        N535   1.428       .  S
N535        O539   1.262       .  A
N535        O540   1.262       .  A
N538        O542   1.262       .  A
N538        O541   1.262       .  A
C543        C544   1.401       .  A
C543        C548   1.401       .  A
C543        H550   1.086       .  S
C544        C545   1.409       .  A
C545        C546   1.400   1_655  A
C545        N552   1.429   1_655  S
C546        C547   1.407       .  A
C546        H551   1.086       .  S
C547        C548   1.417   1_455  A
C548        N549   1.430       .  S
N549        O553   1.262       .  A
N549        O554   1.262       .  A
N552        O556   1.262       .  A
N552        O555   1.262       .  A
C557        C558   1.406       .  A
C557        C562   1.402       .  A
C557        H564   1.084       .  S
C558        C559   1.412       .  A
C559        C560   1.402       .  A
C559        N566   1.429       .  S
C560        C561   1.406       .  A
C560        H565   1.084       .  S
C561        C562   1.412       .  A
C562        N563   1.429       .  S
N563        O567   1.262       .  A
N563        O568   1.262       .  A
N566        O570   1.262       .  A
N566        O569   1.262       .  A
C571        C572   1.403       .  A
C571        C576   1.400       .  A
C571        H578   1.088       .  S
C572        C573   1.413       .  A
C573        C574   1.403       .  A
C573        N580   1.429       .  S
C574        C575   1.403       .  A
C574        H579   1.087       .  S
C575        C576   1.411       .  A
C576        N577   1.429       .  S
N577        O581   1.262       .  A
N577        O582   1.262       .  A
N580        O584   1.262       .  A
N580        O583   1.262       .  A
C585        C586   1.404       .  A
C585        C590   1.400       .  A
C585        H592   1.085       .  S
C586        C587   1.411       .  A
C587        C588   1.403       .  A
C587        N594   1.429       .  S
C588        C589   1.406       .  A
C588        H593   1.085       .  S
C589        C590   1.412       .  A
C590        N591   1.430       .  S
N591        O595   1.262       .  A
N591        O596   1.262       .  A
N594        O598   1.262       .  A
N594        O597   1.262       .  A
C599        C600   1.398       .  A
C599        C604   1.400   1_455  A
C599        H606   1.086       .  S
C600        C601   1.405       .  A
C601        C602   1.398       .  A
C601        N608   1.429       .  S
C602        C603   1.406   1_455  A
C602        H607   1.085       .  S
C603        C604   1.416       .  A
C604        N605   1.428       .  S
N605        O609   1.262       .  A
N605        O610   1.262       .  A
N608        O612   1.262       .  A
N608        O611   1.262       .  A
C613        C614   1.404       .  A
C613        C618   1.396       .  A
C613        H620   1.086       .  S
C614        C615   1.415       .  A
C615        C616   1.402       .  A
C615        N622   1.430       .  S
C616        C617   1.404       .  A
C616        H621   1.086       .  S
C617        C618   1.413       .  A
C618        N619   1.431       .  S
N619        O623   1.262       .  A
N619        O624   1.262   1_655  A
N622        O626   1.262       .  A
N622        O625   1.262       .  A
C627        C628   1.403       .  A
C627        C632   1.400       .  A
C627        H634   1.086       .  S
C628        C629   1.410       .  A
C629        C630   1.399       .  A
C629        N636   1.429       .  S
C630        C631   1.402       .  A
C630        H635   1.086       .  S
C631        C632   1.411       .  A
C632        N633   1.429       .  S
N633        O637   1.262       .  A
N633        O638   1.262       .  A
N636        O640   1.262       .  A
N636        O639   1.262       .  A
C641        C642   1.409       .  A
C641        C646   1.399       .  A
C641        H648   1.085       .  S
C642        C643   1.417       .  A
C643        C644   1.401       .  A
C643        N650   1.430       .  S
C644        C645   1.403       .  A
C644        H649   1.085       .  S
C645        C646   1.410       .  A
C646        N647   1.430       .  S
N647        O651   1.262       .  A
N647        O652   1.262       .  A
N650        O654   1.262       .  A
N650        O653   1.262       .  A
C655        C656   1.403       .  A
C655        C660   1.400       .  A
C655        H662   1.086       .  S
C656        C657   1.410       .  A
C657        C658   1.399       .  A
C657        N664   1.429       .  S
C658        C659   1.404       .  A
C658        H663   1.086       .  S
C659        C660   1.411       .  A
C660        N661   1.430       .  S
N661        O665   1.262       .  A
N661        O666   1.262       .  A
N664        O668   1.262       .  A
N664        O667   1.262       .  A
C669        C670   1.407       .  A
C669        C674   1.401       .  A
C669        H676   1.088       .  S
C670        C671   1.416       .  A
C671        C672   1.403       .  A
C671        N678   1.429       .  S
C672        C673   1.400       .  A
C672        H677   1.088       .  S
C673        C674   1.406       .  A
C674        N675   1.428       .  S
N675        O679   1.262       .  A
N675        O680   1.262       .  A
N678        O682   1.262       .  A
N678        O681   1.262       .  A
C683        C684   1.400       .  A
C683        C688   1.399       .  A
C683        H690   1.091       .  S
C684        C685   1.408       .  A
C685        C686   1.402       .  A
C685        N692   1.429       .  S
C686        C687   1.410       .  A
C686        H691   1.092       .  S
C687        C688   1.418       .  A
C688        N689   1.429       .  S
N689        O693   1.262       .  A
N689        O694   1.262       .  A
N692        O696   1.262       .  A
N692        O695   1.262       .  A
C697        C698   1.410       .  A
C697        C702   1.402       .  A
C697        H704   1.087       .  S
C698        C699   1.421       .  A
C699        C700   1.403       .  A
C699        N706   1.428       .  S
C700        C701   1.399       .  A
C700        H705   1.088       .  S
C701        C702   1.408       .  A
C702        N703   1.429       .  S
N703        O707   1.262       .  A
N703        O708   1.262       .  A
N706        O710   1.262       .  A
N706        O709   1.262       .  A
C711        C712   1.404       .  A
C711        C716   1.399       .  A
C711        H718   1.087       .  S
C712        C713   1.416       .  A
C713        C714   1.404   1_655  A
C713        N720   1.429       .  S
C714        C715   1.402   1_455  A
C714        H719   1.087       .  S
C715        C716   1.412       .  A
C716        N717   1.430       .  S
N717        O721   1.262       .  A
N717        O722   1.262       .  A
N720        O724   1.262       .  A
N720        O723   1.262       .  A
C725        C726   1.406       .  A
C725        C730   1.401       .  A
C725        H732   1.087       .  S
C726        C727   1.418       .  A
C727        C728   1.402       .  A
C727        N734   1.430       .  S
C728        C729   1.401       .  A
C728        H733   1.087       .  S
C729        C730   1.409       .  A
C730        N731   1.429       .  S
N731        O735   1.262       .  A
N731        O736   1.262       .  A
N734        O738   1.262       .  A
N734        O737   1.262       .  A
C739        C740   1.400       .  A
C739        C744   1.403       .  A
C739        H746   1.089       .  S
C740        C741   1.407       .  A
C741        C742   1.398       .  A
C741        N748   1.429       .  S
C742        C743   1.409       .  A
C742        H747   1.088       .  S
C743        C744   1.421       .  A
C744        N745   1.428       .  S
N745        O749   1.262       .  A
N745        O750   1.262       .  A
N748        O752   1.262       .  A
N748        O751   1.262       .  A
C753        C754   1.401       .  A
C753        C758   1.403       .  A
C753        H760   1.087       .  S
C754        C755   1.410       .  A
C755        C756   1.401       .  A
C755        N762   1.430       .  S
C756        C757   1.407       .  A
C756        H761   1.086       .  S
C757        C758   1.418       .  A
C758        N759   1.429       .  S
N759        O763   1.262       .  A
N759        O764   1.262       .  A
N762        O766   1.262       .  A
N762        O765   1.262       .  A
C767        C768   1.404       .  A
C767        C772   1.403       .  A
C767        H774   1.086       .  S
C768        C769   1.413       .  A
C769        C770   1.401       .  A
C769        N776   1.429       .  S
C770        C771   1.402       .  A
C770        H775   1.086       .  S
C771        C772   1.414       .  A
C772        N773   1.429       .  S
N773        O777   1.262       .  A
N773        O778   1.262       .  A
N776        O780   1.262       .  A
N776        O779   1.262       .  A
C781        C782   1.408       .  A
C781        C786   1.398       .  A
C781        H788   1.086       .  S
C782        C783   1.417       .  A
C783        C784   1.401       .  A
C783        N790   1.429       .  S
C784        C785   1.400       .  A
C784        H789   1.087       .  S
C785        C786   1.405       .  A
C786        N787   1.429       .  S
N787        O791   1.262       .  A
N787        O792   1.262       .  A
N790        O794   1.262       .  A
N790        O793   1.262       .  A
C795        C796   1.399       .  A
C795        C800   1.402       .  A
C795        H802   1.089       .  S
C796        C797   1.407       .  A
C797        C798   1.401       .  A
C797        N804   1.429       .  S
C798        C799   1.410       .  A
C798        H803   1.088       .  S
C799        C800   1.421       .  A
C800        N801   1.428       .  S
N801        O805   1.262       .  A
N801        O806   1.262       .  A
N804        O808   1.262       .  A
N804        O807   1.262       .  A
C809        C810   1.406       .  A
C809        C814   1.398       .  A
C809        H816   1.085       .  S
C810        C811   1.418       .  A
C811        C812   1.402       .  A
C811        N818   1.430       .  S
C812        C813   1.399       .  A
C812        H817   1.086       .  S
C813        C814   1.408       .  A
C814        N815   1.430       .  S
N815        O819   1.262       .  A
N815        O820   1.262       .  A
N818        O822   1.262       .  A
N818        O821   1.262       .  A
C823        C824   1.406       .  A
C823        C828   1.401       .  A
C823        H830   1.086       .  S
C824        C825   1.417       .  A
C825        C826   1.400       .  A
C825        N832   1.428       .  S
C826        C827   1.398       .  A
C826        H831   1.086       .  S
C827        C828   1.405       .  A
C828        N829   1.428       .  S
N829        O833   1.262       .  A
N829        O834   1.262       .  A
N832        O836   1.262       .  A
N832        O835   1.262       .  A
C837        C838   1.407       .  A
C837        C842   1.401       .  A
C837        H844   1.085       .  S
C838        C839   1.414       .  A
C839        C840   1.400       .  A
C839        N846   1.429       .  S
C840        C841   1.399       .  A
C840        H845   1.086       .  S
C841        C842   1.407       .  A
C842        N843   1.429       .  S
N843        O847   1.262       .  A
N843        O848   1.262       .  A
N846        O850   1.262       .  A
N846        O849   1.262       .  A
C851        C852   1.405       .  A
C851        C856   1.401       .  A
C851        H858   1.084       .  S
C852        C853   1.409       .  A
C853        C854   1.399       .  A
C853        N860   1.429       .  S
C854        C855   1.402       .  A
C854        H859   1.085       .  S
C855        C856   1.407       .  A
C856        N857   1.428       .  S
N857        O861   1.262       .  A
N857        O862   1.262       .  A
N860        O864   1.262       .  A
N860        O863   1.262       .  A
C865        C866   1.399       .  A
C865        C870   1.397       .  A
C865        H872   1.090       .  S
C866        C867   1.409       .  A
C867        C868   1.401       .  A
C867        N874   1.429       .  S
C868        C869   1.408       .  A
C868        H873   1.090       .  S
C869        C870   1.417       .  A
C870        N871   1.430       .  S
N871        O875   1.262       .  A
N871        O876   1.262       .  A
N874        O878   1.262       .  A
N874        O877   1.262       .  A
C879        C880   1.399       .  A
C879        C884   1.402       .  A
C879        H886   1.086       .  S
C880        C881   1.405       .  A
C881        C882   1.399       .  A
C881        N888   1.429       .  S
C882        C883   1.407       .  A
C882        H887   1.085   1_455  S
C883        C884   1.415       .  A
C884        N885   1.430       .  S
N885        O889   1.262       .  A
N885        O890   1.262       .  A
N888        O892   1.262   1_455  A
N888        O891   1.262       .  A
C893        C894   1.403   1_455  A
C893        C898   1.400   1_455  A
C893        H900   1.087       .  S
C894        C895   1.415       .  A
C895        C896   1.403       .  A
C895        N902   1.430       .  S
C896        C897   1.403       .  A
C896        H901   1.088       .  S
C897        C898   1.414       .  A
C898        N899   1.430       .  S
N899        O903   1.262   1_655  A
N899        O904   1.262       .  A
N902        O906   1.262       .  A
N902        O905   1.262       .  A
C907        C908   1.400       .  A
C907        C912   1.400       .  A
C907        H914   1.092       .  S
C908        C909   1.409       .  A
C909        C910   1.400       .  A
C909        N916   1.430       .  S
C910        C911   1.408       .  A
C910        H915   1.093       .  S
C911        C912   1.419       .  A
C912        N913   1.429       .  S
N913        O917   1.262       .  A
N913        O918   1.263       .  A
N916        O920   1.262       .  A
N916        O919   1.262       .  A
C921        C922   1.404       .  A
C921        C926   1.404       .  A
C921        H928   1.089       .  S
C922        C923   1.413       .  A
C923        C924   1.398       .  A
C923        N930   1.429       .  S
C924        C925   1.401       .  A
C924        H929   1.089       .  S
C925        C926   1.412       .  A
C926        N927   1.429       .  S
N927        O931   1.262       .  A
N927        O932   1.262       .  A
N930        O934   1.262       .  A
N930        O933   1.262       .  A
C935        C936   1.401       .  A
C935        C940   1.404       .  A
C935        H942   1.087       .  S
C936        C937   1.408       .  A
C937        C938   1.402       .  A
C937        N944   1.429       .  S
C938        C939   1.408       .  A
C938        H943   1.086       .  S
C939        C940   1.420       .  A
C940        N941   1.429       .  S
N941        O945   1.262       .  A
N941        O946   1.262       .  A
N944        O948   1.262       .  A
N944        O947   1.262       .  A
C949        C950   1.407       .  A
C949        C954   1.404       .  A
C949        H956   1.083       .  S
C950        C951   1.413       .  A
C951        C952   1.401       .  A
C951        N958   1.430       .  S
C952        C953   1.405       .  A
C952        H957   1.084       .  S
C953        C954   1.410       .  A
C954        N955   1.429       .  S
N955        O959   1.262       .  A
N955        O960   1.262       .  A
N958        O962   1.262       .  A
N958        O961   1.262       .  A
C963        C964   1.407       .  A
C963        C968   1.400       .  A
C963        H970   1.086       .  S
C964        C965   1.418       .  A
C965        C966   1.405       .  A
C965        N972   1.430       .  S
C966        C967   1.401       .  A
C966        H971   1.087       .  S
C967        C968   1.409       .  A
C968        N969   1.429       .  S
N969        O973   1.262       .  A
N969        O974   1.262       .  A
N972        O976   1.262       .  A
N972        O975   1.262       .  A
