geometry optimzed in LAMMPS
_audit_creation_date              2020-11-30 
_audit_creation_method            'lammps2cif' 
_symmetry_space_group_name_H-M    'P1' 
_symmetry_Int_Tables_number       1 
_symmetry_cell_setting            triclinic 
loop_ 
_symmetry_equiv_pos_as_xyz 
  x,y,z 
_cell_length_a                    43.48689186775394 
_cell_length_b                    41.37131919948583 
_cell_length_c                    28.62298278267961 
_cell_angle_alpha                 82.21523946886322 
_cell_angle_beta                  88.03510144027554 
_cell_angle_gamma                 119.85282402503127 
loop_ 
_atom_site_label 
_atom_site_type_symbol 
_atom_site_fract_x 
_atom_site_fract_y 
_atom_site_fract_z 
_atom_site_charge 
O1          O  0.28583235  0.34569601  0.38812542    -0.81110
O2          O  0.43898349  0.47143018  0.40597759    -0.65800
O3          O  0.34949285  0.40400986  0.37327276    -1.12400
C4          C  0.42795766  0.38828572  0.26290720     1.05780
O5          O  0.43490270  0.48818203  0.33502579    -0.79000
O6          O  0.40379762  0.45575944  0.26609483    -0.66580
Ni7        Ni  0.31354400  0.38525885  0.42559838     1.34870
C8          C  0.37150793  0.43292835  0.26327345     0.84520
O9          O  0.37750657  0.46764660  0.41446086    -0.79540
O10         O  0.33936460  0.42504044  0.46977766    -0.89820
C11         C  0.45464721  0.48762060  0.36544153     0.84090
O12         O  0.33108780  0.35535684  0.45221658    -0.68020
O13         O  0.44652418  0.41883982  0.27670829    -0.87310
C14         C  0.36229037  0.36855218  0.46317481     0.84920
C15         C  0.36484711  0.45987532  0.45636849     1.06490
H16         H  0.42205604  0.40349443  0.36928056     0.38290
O17         O  0.41005856  0.41471039  0.35191793    -1.09970
O18         O  0.35588206  0.39960577  0.28446520    -0.66620
Ni19       Ni  0.36721643  0.37688457  0.33643254     1.26350
O20         O  0.38742259  0.40266337  0.44692053    -0.66850
O21         O  0.39459335  0.36459107  0.28436541    -0.79140
C22         C  0.28975309  0.32820738  0.35603837     0.84300
O23         O  0.31982904  0.33590116  0.33418709    -0.66320
Ni24       Ni  0.43894356  0.45361885  0.30291040     1.27450
Ni25       Ni  0.39326369  0.43809042  0.38957057     1.26060
H26         H  0.34288598  0.41875494  0.35150981     0.38850
O27         O  0.35917308  0.55236343  0.01938518    -0.81110
O28         O  0.42915588  0.46486452  0.08830641    -0.65800
O29         O  0.40850868  0.03142679  0.01472223    -1.12400
C30         C  0.36177669  0.42601867  0.93347841     1.05780
O31         O  0.45872342  0.48134985  0.01816579    -0.79000
O32         O  0.44718796  0.01170325  0.94164316    -0.66580
Ni33       Ni  0.40446879  0.06786231  0.04454453     1.34870
C34         C  0.42962406  0.02048298  0.91389958     0.84520
O35         O  0.45127722  0.03526140  0.09577980    -0.79540
O36         O  0.45147329  0.08819007  0.07223125    -0.89820
C37         C  0.45124888  0.46388998  0.06058971     0.84090
O38         O  0.37753420  0.53372260  0.10176583    -0.68020
O39         O  0.39557405  0.44290038  0.92820210    -0.87310
C40         C  0.36528112  0.49828198  0.11288591     0.84920
C41         C  0.46547864  0.07072357  0.09524617     1.06490
H42         H  0.37850816  0.44002540  0.03247505     0.38290
O43         O  0.39514524  0.46465851  0.01403232    -1.09970
O44         O  0.39791874  0.01098754  0.92614198    -0.66620
Ni45       Ni  0.37147617  0.48704581  0.98706929     1.26350
O46         O  0.37860085  0.48121062  0.09427204    -0.66850
O47         O  0.34471301  0.43957375  0.95627237    -0.79140
C48         C  0.33798362  0.53160798  0.99194152     0.84300
O49         O  0.34320911  0.50946149  0.96962144    -0.66320
Ni50       Ni  0.42743081  0.46172061  0.97396249     1.27450
Ni51       Ni  0.42111367  0.00046473  0.05404067     1.26060
H52         H  0.42859568  0.04705604  0.99074941     0.38850
O53         O  0.07444592  0.07410822  0.59674413    -0.81110
O54         O  0.02318195  0.16138679  0.69927022    -0.65800
O55         O  0.02882490  0.08655153  0.64090960    -1.12400
C56         C  0.04688929  0.17978722  0.51370988     1.05780
O57         O  0.99233629  0.16644606  0.63799859    -0.79000
O58         O  0.95628444  0.11522243  0.57138851    -0.66580
Ni59       Ni  0.05417492  0.06225717  0.66088995     1.34870
C60         C  0.46120367  0.09078049  0.55444300     0.84520
O61         O  0.51067269  0.09032501  0.73147774    -0.79540
O62         O  0.53244659  0.05090921  0.72710520    -0.89820
C63         C  0.00398883  0.17387009  0.67839847     0.84090
O64         O  0.09505472  0.10764542  0.66738408    -0.68020
O65         O  0.02294264  0.17913402  0.54176679    -0.87310
C66         C  0.09652119  0.12031546  0.70464534     0.84920
C67         C  0.51536137  0.06356021  0.74891301     1.06490
H68         H  0.06328756  0.17980990  0.60842422     0.38290
O69         O  0.04421227  0.15365063  0.61492508    -1.09970
O70         O  0.99195822  0.09259167  0.55923760    -0.66620
Ni71       Ni  0.04339940  0.11895059  0.57816782     1.26350
O72         O  0.07722509  0.13642997  0.70757420    -0.66850
O73         O  0.05641244  0.15489369  0.52200433    -0.79140
C74         C  0.05056654  0.06095131  0.56963442     0.84300
O75         O  0.04623358  0.08452710  0.54305040    -0.66320
Ni76       Ni  0.00077540  0.13885206  0.59587201     1.27450
Ni77       Ni  0.03070280  0.12385707  0.67529887     1.26060
H78         H  0.50387723  0.06769896  0.64355738     0.38850
O79         O  0.05562424  0.01885515  0.36166647    -0.81110
O80         O  0.14013279  0.17247081  0.33530371    -0.65800
O81         O  0.09270414  0.09657718  0.33072183    -1.12400
C82         C  0.16946454  0.09427382  0.21777160     1.05780
O83         O  0.16463739  0.19875678  0.26324879    -0.79000
O84         O  0.12557660  0.15051209  0.20226759    -0.66580
Ni85       Ni  0.05297302  0.06333727  0.37354815     1.34870
C86         C  0.09504714  0.12009919  0.20644392     0.84520
O87         O  0.10855850  0.12915809  0.41347344    -0.79540
O88         O  0.05504910  0.10885029  0.38820901    -0.89820
C89         C  0.16626338  0.19853347  0.30690951     0.84090
O90         O  0.07462196  0.06260923  0.42933314    -0.68020
O91         O  0.17899816  0.12910438  0.20636021    -0.87310
C92         C  0.09439287  0.04929886  0.42899327     0.84920
C93         C  0.08167333  0.13327652  0.40687671     1.06490
H94         H  0.17336791  0.11957865  0.30297981     0.38290
O95         O  0.15425920  0.12464094  0.29742284    -1.09970
O96         O  0.08987642  0.09214578  0.23759426    -0.66620
Ni97       Ni  0.11516474  0.08074768  0.28832352     1.26350
O98         O  0.12292347  0.06992495  0.39718273    -0.66850
O99         O  0.14230783  0.07069740  0.24691011    -0.79140
C100        C  0.06122746  0.00900272  0.32336185     0.84300
O101        O  0.07919437  0.03302562  0.28726192    -0.66320
Ni102      Ni  0.16852621  0.16148701  0.23655179     1.27450
Ni103      Ni  0.13313114  0.12363140  0.36120316     1.26060
H104        H  0.08791354  0.11456424  0.31250645     0.38850
O105        O  0.06518705  0.46085427  0.01375276    -0.81110
O106        O  0.17539168  0.98221071  0.01088474    -0.65800
O107        O  0.13069407  0.01269074  0.00082719    -1.12400
C108        C  0.09696054  0.44976086  0.87102337     1.05780
O109        O  0.18623347  0.02110715  0.94484999    -0.79000
O110        O  0.15364458  0.02738831  0.86512411    -0.66580
Ni111      Ni  0.09741694  0.99893430  0.04771102     1.34870
C112        C  0.14195494  0.05109408  0.86849999     0.84520
O113        O  0.14655013  0.98431070  0.08963804    -0.79540
O114        O  0.13305607  0.02980016  0.08257285    -0.89820
C115        C  0.19740316  0.00875683  0.97832612     0.84090
O116        O  0.06526506  0.47887728  0.10066030    -0.68020
O117        O  0.12397018  0.44723990  0.87843106    -0.87310
C118        C  0.05524722  0.44429293  0.10980410     0.84920
C119        C  0.15205074  0.01606373  0.09814907     1.06490
H120        H  0.09343970  0.43239593  0.96453627     0.38290
O121        O  0.11366505  0.45624546  0.96767077    -1.09970
O122        O  0.12573377  0.04698658  0.90806248    -0.66620
Ni123      Ni  0.11531905  0.49932231  0.93935464     1.26350
O124        O  0.07414609  0.43394856  0.08275625    -0.66850
O125        O  0.09296750  0.47507662  0.88613600    -0.79140
C126        C  0.05046379  0.46911710  0.98258351     0.84300
O127        O  0.06886255  0.49005055  0.94646326    -0.66320
Ni128      Ni  0.15416246  0.48365174  0.91243532     1.27450
Ni129      Ni  0.12640724  0.96487352  0.03421772     1.26060
H130        H  0.15283631  0.03601847  0.00052436     0.38850
O131        O  0.43625123  0.27178657  0.73700236    -0.81110
O132        O  0.43819653  0.42495713  0.72428113    -0.65800
O133        O  0.42441731  0.32910487  0.71204455    -1.12400
C134        C  0.00530446  0.40407790  0.57062625     1.05780
O135        O  0.41852077  0.41777332  0.65656200    -0.79000
O136        O  0.40721585  0.35953359  0.61413430    -0.66580
Ni137      Ni  0.41800532  0.29731062  0.77136203     1.34870
C138        C  0.41205571  0.33341127  0.60368746     0.84520
O139        O  0.39123310  0.35946661  0.76874963    -0.79540
O140        O  0.39896954  0.31901457  0.81609736    -0.89820
C141        C  0.43685414  0.43979337  0.68423506     0.84090
O142        O  0.46467209  0.33035615  0.78112893    -0.68020
O143        O  0.97474200  0.40115362  0.56791598    -0.87310
C144        C  0.97987072  0.36586074  0.77711149     0.84920
C145        C  0.38680614  0.34179198  0.80979806     1.06490
H146        H  0.98626301  0.41468761  0.66938303     0.38290
O147        O  0.46346827  0.39463358  0.66437076    -1.09970
O148        O  0.43794982  0.33019744  0.61672560    -0.66620
Ni149      Ni  0.46829222  0.35314670  0.66359795     1.26350
O150        O  0.46651230  0.38570263  0.75973929    -0.66850
O151        O  0.00912981  0.38466006  0.60832583    -0.79140
C152        C  0.46069255  0.28026591  0.70318247     0.84300
O153        O  0.47510010  0.31051614  0.67172442    -0.66320
Ni154      Ni  0.44615360  0.40953987  0.61201846     1.27450
Ni155      Ni  0.42906659  0.37622031  0.71919872     1.26060
H156        H  0.40311757  0.31542666  0.69714769     0.38850
C157        C  0.07343062  0.43362139  0.79755164    -0.05990
C158        C  0.06996450  0.42354370  0.84642264    -0.00070
C159        C  0.03979732  0.39006877  0.87099428    -0.08640
C160        C  0.01106058  0.37094272  0.84603689    -0.06020
C161        C  0.01297200  0.38362615  0.79778987    -0.00080
C162        C  0.04575000  0.41242615  0.77224397    -0.08550
C163        C  0.05324636  0.42212898  0.71930549     0.61830
H164        H  0.09779966  0.45822824  0.77913551     0.12520
H165        H  0.48633695  0.34695493  0.86440690     0.12540
C166        C  0.03714297  0.37526555  0.92316305     0.62060
F167        F  0.08457251  0.42335154  0.70488628    -0.23100
F168        F  0.05746940  0.45742803  0.70616187    -0.20430
F169        F  0.02649269  0.39600470  0.69745964    -0.20110
F170        F  0.53398570  0.39904610  0.94971221    -0.20160
F171        F  0.06717673  0.37312381  0.93217886    -0.20480
F172        F  0.50761565  0.33938972  0.93726623    -0.23160
C173        C  0.01878019  0.44869638  0.49446510    -0.05990
C174        C  0.03364093  0.43383108  0.52750417    -0.00070
C175        C  0.07211066  0.45318385  0.51883403    -0.08640
C176        C  0.09201315  0.98830598  0.48324020    -0.06020
C177        C  0.07534320  0.00761419  0.45984286    -0.00080
C178        C  0.03667273  0.48665772  0.47132973    -0.08550
C179        C  0.01186061  0.00327442  0.46750871     0.61830
H180        H  0.99050746  0.43200237  0.49195581     0.12520
H181        H  0.12079349  0.00224139  0.47691249     0.12540
C182        C  0.09156984  0.43594103  0.54490728     0.62060
F183        F  0.47715168  0.47810284  0.48791307    -0.23100
F184        F  0.01016517  0.01619026  0.42195295    -0.20430
F185        F  0.02403151  0.03288519  0.49127428    -0.20110
F186        F  0.07850330  0.39955727  0.53611685    -0.20160
F187        F  0.08650307  0.43444139  0.59318932    -0.20480
F188        F  0.12788132  0.45663195  0.53021493    -0.23160
C189        C  0.20529817  0.09824523  0.14790884    -0.05990
C190        C  0.18914404  0.07986351  0.19405873    -0.00070
C191        C  0.18100068  0.04211192  0.20889195    -0.08640
C192        C  0.17529320  0.02009185  0.17380431    -0.06020
C193        C  0.18001757  0.03686056  0.12643010    -0.00080
C194        C  0.20100785  0.07655495  0.11301174    -0.08550
C195        C  0.21392253  0.09637128  0.06201661     0.61830
H196        H  0.21543482  0.12831126  0.13736634     0.12520
H197        H  0.16197526  0.98954205  0.18372830     0.12540
C198        C  0.17359371  0.02346745  0.26048447     0.62060
F199        F  0.24953052  0.12412916  0.05835205    -0.23100
F200        F  0.19426125  0.11302093  0.04741501    -0.20430
F201        F  0.21089742  0.07155641  0.03232499    -0.20110
F202        F  0.13746542  0.99772644  0.27195257    -0.20160
F203        F  0.18438323  0.04983235  0.29045150    -0.20480
F204        F  0.19222187  0.00451986  0.26768947    -0.23160
C205        C  0.12658641  0.12634211  0.78567530    -0.05990
C206        C  0.11678581  0.10969025  0.74426107    -0.00070
C207        C  0.12557302  0.08006619  0.74232280    -0.08640
C208        C  0.13732743  0.06569729  0.78159126    -0.06020
C209        C  0.14062068  0.07753910  0.82517501    -0.00080
C210        C  0.13697146  0.11023151  0.82629596    -0.08550
C211        C  0.14320439  0.12781201  0.87070419     0.61830
H212        H  0.12405143  0.15083235  0.78756919     0.12520
H213        H  0.14094679  0.04179767  0.78015104     0.12540
C214        C  0.11827913  0.05853568  0.70180351     0.62060
F215        F  0.14491398  0.16245297  0.86267813    -0.23100
F216        F  0.17511507  0.13344306  0.88581040    -0.20430
F217        F  0.11564118  0.10424568  0.90629650    -0.20110
F218        F  0.13486337  0.08278025  0.65901961    -0.20160
F219        F  0.08183600  0.03807861  0.70297007    -0.20480
F220        F  0.13019004  0.03291338  0.70584841    -0.23160
C221        C  0.44737581  0.21442574  0.70755504    -0.05990
C222        C  0.47319168  0.25295294  0.70155142    -0.00070
C223        C  0.00997903  0.26399364  0.69853665    -0.08640
C224        C  0.01949759  0.23607380  0.69730655    -0.06020
C225        C  0.99352362  0.19790047  0.69978352    -0.00080
C226        C  0.45686991  0.18664897  0.70732548    -0.08550
C227        C  0.42675472  0.14578610  0.71317198     0.61830
H228        H  0.41932642  0.20589878  0.71166416     0.12520
H229        H  0.04732977  0.24425644  0.69081220     0.12540
C230        C  0.03908875  0.30493761  0.69653090     0.62060
F231        F  0.40329032  0.13754709  0.75281840    -0.23100
F232        F  0.43867023  0.12027424  0.71914418    -0.20430
F233        F  0.40858244  0.14086323  0.67359229    -0.20110
F234        F  0.03166864  0.31920214  0.73361917    -0.20160
F235        F  0.04118962  0.32647900  0.65385204    -0.20480
F236        F  0.07220671  0.30837171  0.70030363    -0.23160
C237        C  0.48466914  0.01813405  0.58776733    -0.05990
C238        C  0.01922156  0.02364980  0.58845180    -0.00070
C239        C  0.02547952  0.50084419  0.62242852    -0.08640
C240        C  0.50092543  0.48178577  0.66318492    -0.06020
C241        C  0.46641851  0.47665684  0.66307694    -0.00080
C242        C  0.45884340  0.49666468  0.62683088    -0.08370
C243        C  0.42330887  0.49499847  0.62954412     0.61830
H244        H  0.47843163  0.03166320  0.55797997     0.12520
H245        H  0.00688720  0.46704906  0.69222831     0.12540
C246        C  0.05600932  0.99433843  0.61107015     0.62060
F247        F  0.42919872  0.03105620  0.62695627    -0.23100
F248        F  0.40143991  0.47456152  0.67165287    -0.20430
F249        F  0.40566907  0.47832759  0.59280857    -0.20110
F250        F  0.08452151  0.01341350  0.63489767    -0.20160
F251        F  0.06853411  0.00653607  0.56354347    -0.20480
F252        F  0.04459415  0.45669784  0.62194213    -0.23160
C253        C  0.05428895  0.17378869  0.40692772    -0.05990
C254        C  0.08198661  0.16706435  0.41987024    -0.00070
C255        C  0.10859602  0.19344631  0.44544280    -0.08640
C256        C  0.10088944  0.21897215  0.46418219    -0.06020
C257        C  0.06494174  0.20888244  0.47036429    -0.00080
C258        C  0.04738709  0.19764412  0.43043267    -0.08550
C259        C  0.02306360  0.21153017  0.41272296     0.61830
H260        H  0.03764736  0.15987815  0.38038580     0.12520
H261        H  0.11818706  0.23679061  0.48752758     0.12540
C262        C  0.14106198  0.19150121  0.46002755     0.62060
F263        F  0.53703727  0.23278560  0.36771542    -0.23100
F264        F  0.02006623  0.23395791  0.44225245    -0.20430
F265        F  0.98942804  0.18152792  0.41049923    -0.20110
F266        F  0.16235851  0.19519805  0.42058243    -0.20160
F267        F  0.13012809  0.15736323  0.48953832    -0.20480
F268        F  0.16194383  0.22011320  0.48456930    -0.23160
C269        C  0.36395949  0.36770523  0.92831785    -0.05990
C270        C  0.34746513  0.38909535  0.91308209    -0.00070
C271        C  0.33551531  0.38484961  0.86744876    -0.08640
C272        C  0.34650780  0.36682196  0.83660028    -0.06020
C273        C  0.36846740  0.35116601  0.84935449    -0.00080
C274        C  0.37538463  0.35001879  0.89762769    -0.08550
C275        C  0.39733719  0.33292649  0.91604947     0.61830
H276        H  0.37261652  0.36964379  0.96338668     0.12520
H277        H  0.33872877  0.36633172  0.80102683     0.12540
C278        C  0.31045903  0.39813612  0.85029737     0.62060
F279        F  0.40104359  0.33420504  0.96369767    -0.23100
F280        F  0.43109636  0.35272856  0.89102200    -0.20430
F281        F  0.38088672  0.29540978  0.91064918    -0.20110
F282        F  0.32500742  0.42288624  0.80751823    -0.20160
F283        F  0.30288520  0.41584437  0.88274373    -0.20480
F284        F  0.27873753  0.36710868  0.84349090    -0.23160
C285        C  0.06530328  0.11301035  0.12612068    -0.05990
C286        C  0.06384858  0.11580110  0.17523593    -0.00070
C287        C  0.03072358  0.11198101  0.19394491    -0.08640
C288        C  0.49940173  0.09682911  0.16871883    -0.06020
C289        C  0.50028163  0.09111741  0.12101106    -0.00080
C290        C  0.03540243  0.10431536  0.09860596    -0.08550
C291        C  0.04151768  0.11375622  0.04492663     0.61830
H292        H  0.09051071  0.11907517  0.10858191     0.12520
H293        H  0.47422734  0.09138961  0.18560457     0.12540
C294        C  0.52987283  0.13139039  0.23495796     0.62060
F295        F  0.07669867  0.12738370  0.02770583    -0.23100
F296        F  0.03336246  0.14156328  0.03013750    -0.20430
F297        F  0.01947971  0.08224683  0.02565864    -0.20110
F298        F  0.54106499  0.16874564  0.21681489    -0.20160
F299        F  0.05200548  0.13088293  0.26765744    -0.20480
F300        F  0.49571647  0.11453239  0.25838065    -0.23160
C301        C  0.29260067  0.53302734  0.94293463    -0.05990
C302        C  0.30431674  0.53210712  0.98786253    -0.00070
C303        C  0.28218992  0.52831811  0.02855853    -0.08640
C304        C  0.24841250  0.02346982  0.02283817    -0.06020
C305        C  0.23587777  0.02214087  0.97844572    -0.00080
C306        C  0.25867971  0.52844118  0.93723772    -0.08550
C307        C  0.24699128  0.52868889  0.88785462     0.61830
H308        H  0.31000796  0.53641410  0.91238883     0.12520
H309        H  0.23061429  0.01899231  0.05357203     0.12540
C310        C  0.29240590  0.52607626  0.07862031     0.62060
F311        F  0.27319284  0.03425194  0.85348898    -0.23100
F312        F  0.24007401  0.05789149  0.87692873    -0.20430
F313        F  0.21663274  0.49449535  0.88600902    -0.20110
F314        F  0.32195707  0.05997034  0.08371026    -0.20160
F315        F  0.29960467  0.49711298  0.08755732    -0.20480
F316        F  0.26528166  0.51860196  0.11278439    -0.23160
C317        C  0.50805065  0.98491466  0.06921366    -0.05990
C318        C  0.47441762  0.45133078  0.07636021    -0.00070
C319        C  0.46946997  0.42121629  0.05432278    -0.08640
C320        C  0.99099972  0.43062874  0.01198118    -0.06020
C321        C  0.01956732  0.46784573  0.99782675    -0.00080
C322        C  0.02768907  0.99620755  0.02532310    -0.08550
C323        C  0.05702082  0.03768600  0.00949445     0.61830
H324        H  0.51330985  0.00709386  0.08905387     0.12520
H325        H  0.98754636  0.40883313  0.99199100     0.12540
C326        C  0.43665248  0.38241037  0.06867500     0.62060
F327        F  0.04720801  0.05350333  0.97150569    -0.23100
F328        F  0.08970374  0.04215095  0.99589709    -0.20430
F329        F  0.06222756  0.55792925  0.04600271    -0.20110
F330        F  0.43895508  0.85621126  0.04631413    -0.20160
F331        F  0.40665421  0.38352795  0.05645742    -0.20480
F332        F  0.43271843  0.37090112  0.11713938    -0.23160
C333        C  0.48178937  0.06606828  0.86475490    -0.05990
C334        C  0.44626899  0.03834327  0.86605303    -0.00070
C335        C  0.43512211  0.01717296  0.82876680    -0.08640
C336        C  0.46101148  0.02024065  0.79561000    -0.06020
C337        C  0.49689120  0.04638533  0.79597483    -0.00080
C338        C  0.50748379  0.06882059  0.83195860    -0.08550
C339        C  0.04604225  0.09401523  0.83676059     0.61830
H340        H  0.48968709  0.08204011  0.89360718     0.12520
H341        H  0.45277178  0.00503301  0.76601903     0.12540
C342        C  0.39703957  0.49097081  0.82091967     0.62060
F343        F  0.05122524  0.10795721  0.87894976    -0.23100
F344        F  0.06057942  0.12435493  0.79991356    -0.20430
F345        F  0.06240445  0.07282600  0.83593967    -0.20110
F346        F  0.37215097  0.49033889  0.85270754    -0.20160
F347        F  0.39201367  0.45510913  0.82382820    -0.20480
F348        F  0.39151326  0.50239574  0.77582442    -0.23160
C349        C  0.50572993  0.44333598  0.16349783    -0.05990
C350        C  0.01984205  0.42131501  0.14857511    -0.00070
C351        C  0.99894858  0.38223955  0.17214874    -0.08640
C352        C  0.46754905  0.36894414  0.20794479    -0.06020
C353        C  0.45172456  0.39149504  0.21650876    -0.00080
C354        C  0.47103540  0.42882854  0.18780721    -0.08550
C355        C  0.45576975  0.45541961  0.18521743     0.61830
H356        H  0.02141389  0.47373861  0.15399918     0.12520
H357        H  0.45564868  0.34101038  0.22933719     0.12540
C358        C  0.01101464  0.35537744  0.16132070     0.62060
F359        F  0.47209022  0.48563610  0.14922305    -0.23100
F360        F  0.46141358  0.47294804  0.22315159    -0.20430
F361        F  0.41965285  0.43543741  0.18101194    -0.20110
F362        F  0.04537062  0.36822493  0.17279997    -0.20160
F363        F  0.01067399  0.35366916  0.11339799    -0.20480
F364        F  0.98895404  0.31923245  0.18671787    -0.23160
C365        C  0.42033851  0.02178190  0.46409013    -0.05990
C366        C  0.38531124  0.49319143  0.48477426    -0.00070
C367        C  0.37270453  0.50129115  0.52587283    -0.08640
C368        C  0.39622834  0.03462876  0.54598870    -0.06020
C369        C  0.43305747  0.05989538  0.52793568    -0.00080
C370        C  0.44351409  0.05407356  0.48379167    -0.08550
C371        C  0.47809780  0.08438096  0.45441147     0.61830
H372        H  0.43019976  0.01948460  0.43054072     0.12520
H373        H  0.38635064  0.03972290  0.57773389     0.12540
C374        C  0.33473942  0.47471603  0.54835577     0.62060
F375        F  0.47988635  0.07884384  0.40798083    -0.23100
F376        F  0.00683487  0.08520659  0.47392591    -0.20430
F377        F  0.48052191  0.11893837  0.45336655    -0.20110
F378        F  0.32988132  0.43910855  0.56340905    -0.20160
F379        F  0.31152017  0.47239994  0.51538143    -0.20480
F380        F  0.32657347  0.48693609  0.58709644    -0.23160
C381        C  0.19774187  0.26556590  0.31834321    -0.05990
C382        C  0.19657503  0.23077093  0.32317456    -0.00070
C383        C  0.22630050  0.22844241  0.33796998    -0.08640
C384        C  0.25580703  0.26082553  0.34906508    -0.06020
C385        C  0.25698895  0.29555661  0.34461303    -0.00080
C386        C  0.22775893  0.29833133  0.32841100    -0.08550
C387        C  0.22903927  0.33601178  0.31946212     0.61830
H388        H  0.17520795  0.26699759  0.30561028     0.12520
H389        H  0.27863154  0.25945967  0.36074371     0.12540
C390        C  0.22760755  0.19237448  0.33984148     0.62060
F391        F  0.19981027  0.33324296  0.29843824    -0.23100
F392        F  0.25951986  0.36246668  0.28946047    -0.20430
F393        F  0.22930637  0.34854235  0.36189081    -0.20110
F394        F  0.22633031  0.18372080  0.29471372    -0.20160
F395        F  0.19899366  0.16306249  0.37013685    -0.20480
F396        F  0.25862513  0.19592071  0.35594833    -0.23160
C397        C  0.01625175  0.97852620  0.28131929    -0.05990
C398        C  0.03546051  0.97076336  0.31452692    -0.00070
C399        C  0.01372678  0.44560329  0.35562671    -0.08640
C400        C  0.48828655  0.45315989  0.37496537    -0.06020
C401        C  0.48313453  0.48163469  0.34846184    -0.00080
C402        C  0.49775704  0.49491769  0.29949048    -0.08550
C403        C  0.50190780  0.53097549  0.27126804     0.61830
H404        H  0.02750000  0.98680924  0.24438591     0.12520
H405        H  0.47268572  0.43695880  0.40876997     0.12540
C406        C  0.01687734  0.41205914  0.37595430     0.62060
F407        F  0.51800536  0.05936621  0.29763814    -0.23100
F408        F  0.46999719  0.52805933  0.26075211    -0.20430
F409        F  0.52279949  0.54078072  0.22861252    -0.20110
F410        F  0.02773075  0.91561091  0.42017164    -0.20160
F411        F  0.04177962  0.90970592  0.34699063    -0.20480
F412        F  0.98414168  0.37928671  0.37883676    -0.23160
C413        C  0.35569696  0.30353628  0.57388601    -0.05990
C414        C  0.39088395  0.31137533  0.56907550    -0.00070
C415        C  0.40916584  0.32247598  0.52294371    -0.08640
C416        C  0.39931517  0.34142926  0.48804445    -0.06020
C417        C  0.36860187  0.34349430  0.49729019    -0.00080
C418        C  0.34430239  0.32097158  0.53889091    -0.08550
C419        C  0.30816125  0.31776634  0.54847257     0.61830
H420        H  0.34052236  0.29108458  0.60873722     0.12520
H421        H  0.41576783  0.35496863  0.45407009     0.12540
C422        C  0.44070880  0.31786027  0.51100158     0.62060
F423        F  0.29112137  0.29742869  0.59317369    -0.23100
F424        F  0.28617176  0.29918016  0.51565617    -0.20430
F425        F  0.31240677  0.35343456  0.54567545    -0.20110
F426        F  0.44589296  0.29708852  0.54872293    -0.20160
F427        F  0.47126781  0.35296165  0.49848074    -0.20480
F428        F  0.43460990  0.29891386  0.47297630    -0.23160
C429        C  0.33223744  0.42129507  0.20099670    -0.05990
C430        C  0.35140455  0.44463268  0.23306706    -0.00070
C431        C  0.35224271  0.47933554  0.23297334    -0.08640
C432        C  0.34318605  0.49415644  0.19243716    -0.06020
C433        C  0.33748184  0.47616756  0.15305040    -0.00080
C434        C  0.32356428  0.43668322  0.16089930    -0.08550
C435        C  0.30710838  0.41278407  0.12325172     0.61830
H436        H  0.32779847  0.39282223  0.20414927     0.12520
H437        H  0.34875448  0.52307491  0.18769085     0.12540
C438        C  0.36302218  0.50065045  0.27418362     0.62060
F439        F  0.27394990  0.38232185  0.14205991    -0.23100
F440        F  0.32862578  0.39937496  0.10847903    -0.20430
F441        F  0.30286327  0.43327736  0.08422069    -0.20110
F442        F  0.39888082  0.51503381  0.27789538    -0.20160
F443        F  0.34323337  0.47655455  0.31581423    -0.20480
F444        F  0.35679304  0.53059495  0.26852131    -0.23160
O445        O  0.28576981  0.84563010  0.38819690    -0.81110
O446        O  0.43893337  0.97136830  0.40593642    -0.65800
O447        O  0.34942867  0.90393441  0.37330597    -1.12400
C448        C  0.42789133  0.88820617  0.26290080     1.05780
O449        O  0.43479124  0.98807404  0.33498815    -0.79000
O450        O  0.40371333  0.95562118  0.26605492    -0.66580
Ni451      Ni  0.31349227  0.88521095  0.42563761     1.34870
C452        C  0.37140733  0.93281654  0.26328018     0.84520
O453        O  0.37747054  0.96760021  0.41445050    -0.79540
O454        O  0.33932684  0.92501465  0.46978454    -0.89820
C455        C  0.45456413  0.98755338  0.36538481     0.84090
O456        O  0.33103787  0.85531637  0.45226807    -0.68020
O457        O  0.44648631  0.91871490  0.27678886    -0.87310
C458        C  0.36224367  0.86851061  0.46321203     0.84920
C459        C  0.36481266  0.95984571  0.45635682     1.06490
H460        H  0.42197894  0.90340575  0.36929489     0.38290
O461        O  0.40998139  0.91462012  0.35192819    -1.09970
O462        O  0.35575820  0.89950911  0.28451788    -0.66620
Ni463      Ni  0.36713485  0.87680013  0.33644804     1.26350
O464        O  0.38737882  0.90261588  0.44693707    -0.66850
O465        O  0.39450809  0.86453319  0.28432264    -0.79140
C466        C  0.28967448  0.82812882  0.35611520     0.84300
O467        O  0.31974073  0.83581451  0.33423849    -0.66320
Ni468      Ni  0.43886289  0.95350677  0.30291051     1.27450
Ni469      Ni  0.39320596  0.93802091  0.38957198     1.26060
H470        H  0.34282094  0.91868034  0.35154798     0.38850
O471        O  0.35919922  0.05245594  0.01953891    -0.81110
O472        O  0.42927457  0.96509009  0.08849287    -0.65800
O473        O  0.40843558  0.53126187  0.01456122    -1.12400
C474        C  0.36199886  0.92617441  0.93362766     1.05780
O475        O  0.45891382  0.98183652  0.01837453    -0.79000
O476        O  0.44705121  0.51144702  0.94155866    -0.66580
Ni477      Ni  0.40444895  0.56773995  0.04435858     1.34870
C478        C  0.42952983  0.52029703  0.91381194     0.84520
O479        O  0.45127661  0.53510954  0.09552363    -0.79540
O480        O  0.45145158  0.58804048  0.07203685    -0.89820
C481        C  0.45143292  0.96425934  0.06073664     0.84090
O482        O  0.37754138  0.03380615  0.10193659    -0.68020
O483        O  0.39580460  0.94301230  0.92845085    -0.87310
C484        C  0.36529348  0.99836167  0.11300076     0.84920
C485        C  0.46546363  0.57057104  0.09502656     1.06490
H486        H  0.37868178  0.94021134  0.03258515     0.38290
O487        O  0.39530103  0.96486202  0.01416937    -1.09970
O488        O  0.39782199  0.51082204  0.92601557    -0.66620
Ni489      Ni  0.37159747  0.98719882  0.98720333     1.26350
O490        O  0.37864990  0.98132929  0.09438050    -0.66850
O491        O  0.34491260  0.93973466  0.95637215    -0.79140
C492        C  0.33803225  0.03169425  0.99207948     0.84300
O493        O  0.34328548  0.00956159  0.96976451    -0.66320
Ni494      Ni  0.42767207  0.96202739  0.97416224     1.27450
Ni495      Ni  0.42102991  0.50027675  0.05385645     1.26060
H496        H  0.42851872  0.54687827  0.99058053     0.38850
O497        O  0.07453597  0.57424045  0.59682405    -0.81110
O498        O  0.02316908  0.66147203  0.69932489    -0.65800
O499        O  0.02888048  0.58665726  0.64098891    -1.12400
C500        C  0.04681904  0.67979704  0.51372311     1.05780
O501        O  0.99230220  0.66649005  0.63805856    -0.79000
O502        O  0.95625308  0.61521085  0.57151052    -0.66580
Ni503      Ni  0.05427419  0.56240860  0.66096347     1.34870
C504        C  0.46122791  0.59079442  0.55448575     0.84520
O505        O  0.51071613  0.59036485  0.73150143    -0.79540
O506        O  0.53252012  0.55097657  0.72710709    -0.89820
C507        C  0.00395408  0.67392736  0.67845619     0.84090
O508        O  0.09511910  0.60783558  0.66741835    -0.68020
O509        O  0.02287386  0.67913602  0.54179458    -0.87310
C510        C  0.09657062  0.62048607  0.70469074     0.84920
C511        C  0.51541896  0.56360592  0.74892211     1.06490
H512        H  0.06326305  0.67990425  0.60845639     0.38290
O513        O  0.04420546  0.65373705  0.61497493    -1.09970
O514        O  0.99197112  0.59263500  0.55933542    -0.66620
Ni515      Ni  0.04342133  0.61903761  0.57823776     1.26350
O516        O  0.07726278  0.63658508  0.70762485    -0.66850
O517        O  0.05639689  0.65495074  0.52204914    -0.79140
C518        C  0.05065010  0.56106397  0.56973112     0.84300
O519        O  0.04629143  0.58462187  0.54314749    -0.66320
Ni520      Ni  0.00075405  0.63888984  0.59595146     1.27450
Ni521      Ni  0.03072853  0.62396131  0.67536427     1.26060
H522        H  0.50394120  0.56775242  0.64357659     0.38850
O523        O  0.05569720  0.51879621  0.36191724    -0.81110
O524        O  0.14002750  0.67241989  0.33498850    -0.65800
O525        O  0.09269406  0.59648758  0.33070322    -1.12400
C526        C  0.16944123  0.59412580  0.21783761     1.05780
O527        O  0.16483223  0.69882380  0.26307118    -0.79000
O528        O  0.12538742  0.65034205  0.20244939    -0.66580
Ni529      Ni  0.05301171  0.56329770  0.37363130     1.34870
C530        C  0.09494428  0.61982869  0.20653537     0.84520
O531        O  0.10858361  0.62927733  0.41333228    -0.79540
O532        O  0.05503982  0.60883391  0.38814112    -0.89820
C533        C  0.16625836  0.69852582  0.30676960     0.84090
O534        O  0.07473620  0.56273467  0.42938354    -0.68020
O535        O  0.17878726  0.62889124  0.20623871    -0.87310
C536        C  0.09451587  0.54943697  0.42907140     0.84920
C537        C  0.08165361  0.63331745  0.40676591     1.06490
H538        H  0.17340700  0.61961001  0.30296547     0.38290
O539        O  0.15426572  0.62461305  0.29738098    -1.09970
O540        O  0.08990248  0.59186201  0.23757091    -0.66620
Ni541      Ni  0.11521230  0.58062573  0.28842957     1.26350
O542        O  0.12302877  0.57004998  0.39723269    -0.66850
O543        O  0.14240941  0.57055369  0.24715870    -0.79140
C544        C  0.06132140  0.50886684  0.32368954     0.84300
O545        O  0.07930673  0.53282842  0.28754550    -0.66320
Ni546      Ni  0.16846991  0.66137631  0.23644278     1.27450
Ni547      Ni  0.13313736  0.62368069  0.36110295     1.26060
H548        H  0.08783295  0.61439009  0.31241009     0.38850
O549        O  0.06522244  0.96078464  0.01370531    -0.81110
O550        O  0.17536043  0.48223052  0.01085750    -0.65800
O551        O  0.13067642  0.51274431  0.00084203    -1.12400
C552        C  0.09701899  0.94968828  0.87100839     1.05780
O553        O  0.18620771  0.52115510  0.94485210    -0.79000
O554        O  0.15360037  0.52746365  0.86515289    -0.66580
Ni555      Ni  0.09742002  0.49899653  0.04774592     1.34870
C556        C  0.14191726  0.55117286  0.86854521     0.84520
O557        O  0.14654134  0.48431939  0.08962639    -0.79540
O558        O  0.13308930  0.52983900  0.08259678    -0.89820
C559        C  0.19737541  0.50878009  0.97830620     0.84090
O560        O  0.06524111  0.97880702  0.10060959    -0.68020
O561        O  0.12402395  0.94716230  0.87843504    -0.87310
C562        C  0.05523488  0.94422671  0.10977362     0.84920
C563        C  0.15207145  0.51607796  0.09814822     1.06490
H564        H  0.09348511  0.93233194  0.96453619     0.38290
O565        O  0.11370759  0.95618393  0.96767227    -1.09970
O566        O  0.12569377  0.54705666  0.90810914    -0.66620
Ni567      Ni  0.11536240  0.99925737  0.93933192     1.26350
O568        O  0.07415509  0.93389186  0.08274830    -0.66850
O569        O  0.09302453  0.97500418  0.88611429    -0.79140
C570        C  0.05050420  0.96905052  0.98253255     0.84300
O571        O  0.06890160  0.98996802  0.94640462    -0.66320
Ni572      Ni  0.15420582  0.98358848  0.91243721     1.27450
Ni573      Ni  0.12638322  0.46491361  0.03420785     1.26060
H574        H  0.15282490  0.53606720  0.00053240     0.38850
O575        O  0.43616058  0.77174307  0.73702530    -0.81110
O576        O  0.43811911  0.92492649  0.72430587    -0.65800
O577        O  0.42435557  0.82907765  0.71208419    -1.12400
C578        C  0.00519300  0.90404177  0.57063986     1.05780
O579        O  0.41842878  0.91771623  0.65660056    -0.79000
O580        O  0.40715028  0.85949960  0.61413916    -0.66580
Ni581      Ni  0.41797264  0.79730859  0.77140358     1.34870
C582        C  0.41199223  0.83337288  0.60371345     0.84520
O583        O  0.39116662  0.85942624  0.76879081    -0.79540
O584        O  0.39901241  0.81907080  0.81615273    -0.89820
C585        C  0.43676127  0.93975003  0.68426040     0.84090
O586        O  0.46466068  0.83035132  0.78107549    -0.68020
O587        O  0.97465636  0.90119114  0.56795160    -0.87310
C588        C  0.97985444  0.86591642  0.77714484     0.84920
C589        C  0.38681799  0.84182081  0.80985873     1.06490
H590        H  0.98609449  0.91458957  0.66938352     0.38290
O591        O  0.46343627  0.89463817  0.66440477    -1.09970
O592        O  0.43788138  0.83015679  0.61676688    -0.66620
Ni593      Ni  0.46821779  0.85311044  0.66362946     1.26350
O594        O  0.46645859  0.88568313  0.75976463    -0.66850
O595        O  0.00901560  0.88462726  0.60834918    -0.79140
C596        C  0.46061694  0.78023058  0.70322245     0.84300
O597        O  0.47503521  0.81048736  0.67177280    -0.66320
Ni598      Ni  0.44607358  0.90950601  0.61204763     1.27450
Ni599      Ni  0.42899277  0.87618441  0.71923358     1.26060
H600        H  0.40305070  0.81539194  0.69719341     0.38850
C601        C  0.07346008  0.93360264  0.79753577    -0.05990
C602        C  0.07002336  0.92348212  0.84639705    -0.00070
C603        C  0.03984631  0.89001769  0.87096678    -0.08640
C604        C  0.01108210  0.87094211  0.84602980    -0.06020
C605        C  0.01297074  0.88366518  0.79779989    -0.00080
C606        C  0.04574880  0.91245295  0.77224096    -0.08550
C607        C  0.05320674  0.92219147  0.71930164     0.61830
H608        H  0.09782774  0.95821059  0.77911909     0.12520
H609        H  0.48630061  0.84692366  0.86437247     0.12540
C610        C  0.03720063  0.87518774  0.92312418     0.62060
F611        F  0.08454833  0.92347382  0.70480310    -0.23100
F612        F  0.05737385  0.95747177  0.70622229    -0.20430
F613        F  0.02645227  0.89605446  0.69746900    -0.20110
F614        F  0.53391844  0.89900855  0.94968385    -0.20160
F615        F  0.06724328  0.87305737  0.93211684    -0.20480
F616        F  0.50754854  0.83934745  0.93725007    -0.23160
C617        C  0.01865556  0.94854584  0.49436571    -0.05990
C618        C  0.03351671  0.93371849  0.52745731    -0.00070
C619        C  0.07198560  0.95306744  0.51878676    -0.08640
C620        C  0.09213891  0.48843572  0.48330780    -0.06020
C621        C  0.07547088  0.50775787  0.45994083    -0.00080
C622        C  0.03654382  0.98650584  0.47120954    -0.08550
C623        C  0.01198884  0.50342616  0.46765526     0.61830
H624        H  0.99038184  0.93183736  0.49186619     0.12520
H625        H  0.12091838  0.50236598  0.47696765     0.12540
C626        C  0.09144387  0.93583209  0.54487871     0.62060
F627        F  0.47706346  0.97795089  0.48779500    -0.23100
F628        F  0.01023663  0.51629164  0.42210570    -0.20430
F629        F  0.02419895  0.53306886  0.49136032    -0.20110
F630        F  0.07836670  0.89943742  0.53612383    -0.20160
F631        F  0.08638899  0.93436106  0.59315485    -0.20480
F632        F  0.12775335  0.95651073  0.53017232    -0.23160
C633        C  0.20534282  0.59820086  0.14797263    -0.05990
C634        C  0.18917923  0.57977964  0.19411106    -0.00070
C635        C  0.18107779  0.54203822  0.20889336    -0.08640
C636        C  0.17536077  0.52004700  0.17377007    -0.06020
C637        C  0.18005846  0.53684709  0.12641549    -0.00080
C638        C  0.20104822  0.57654298  0.11303638    -0.08550
C639        C  0.21395036  0.59639083  0.06205142     0.61830
H640        H  0.21547787  0.62826973  0.13746950     0.12520
H641        H  0.16205687  0.48949592  0.18365967     0.12540
C642        C  0.17372485  0.52337428  0.26046939     0.62060
F643        F  0.24956010  0.62414397  0.05838442    -0.23100
F644        F  0.19428784  0.61305160  0.04750435    -0.20430
F645        F  0.21091210  0.57159770  0.03231771    -0.20110
F646        F  0.13760493  0.49761466  0.27198784    -0.20160
F647        F  0.18453804  0.54972462  0.29045835    -0.20480
F648        F  0.19237573  0.50444490  0.26758389    -0.23160
C649        C  0.12654617  0.62643762  0.78577560    -0.05990
C650        C  0.11680788  0.60983575  0.74431969    -0.00070
C651        C  0.12563419  0.58024356  0.74234819    -0.08640
C652        C  0.13735985  0.56584720  0.78162522    -0.06020
C653        C  0.14060177  0.57764207  0.82523556    -0.00080
C654        C  0.13692837  0.61031624  0.82638793    -0.08550
C655        C  0.14312502  0.62786282  0.87082271     0.61830
H656        H  0.12397057  0.65089928  0.78770313     0.12520
H657        H  0.14099836  0.54196210  0.78016343     0.12540
C658        C  0.11839566  0.55875687  0.70178919     0.62060
F659        F  0.14483147  0.66250262  0.86281931    -0.23100
F660        F  0.17502520  0.63348712  0.88596166    -0.20430
F661        F  0.11554239  0.60427506  0.90638318    -0.20110
F662        F  0.13497423  0.58303507  0.65902639    -0.20160
F663        F  0.08195730  0.53825746  0.70293244    -0.20480
F664        F  0.13035761  0.53317791  0.70580390    -0.23160
C665        C  0.44732298  0.71439625  0.70759375    -0.05990
C666        C  0.47312791  0.75292653  0.70159978    -0.00070
C667        C  0.00989545  0.76401884  0.69866730    -0.08640
C668        C  0.01942766  0.73611205  0.69740876    -0.06020
C669        C  0.99346474  0.69794058  0.69984441    -0.00080
C670        C  0.45683282  0.68663137  0.70736008    -0.08550
C671        C  0.42672987  0.64576352  0.71319742     0.61830
H672        H  0.41927063  0.70585769  0.71169659     0.12520
H673        H  0.04726345  0.74430608  0.69092403     0.12540
C674        C  0.03899535  0.80496210  0.69669836     0.62060
F675        F  0.40325774  0.63750999  0.75284123    -0.23100
F676        F  0.43866057  0.62026460  0.71916766    -0.20430
F677        F  0.40856172  0.64083681  0.67361377    -0.20110
F678        F  0.03155247  0.81920318  0.73379564    -0.20160
F679        F  0.04110957  0.82652052  0.65402753    -0.20480
F680        F  0.07211401  0.80840199  0.70048934    -0.23160
C681        C  0.48476696  0.51819963  0.58778401    -0.05990
C682        C  0.01932248  0.52375258  0.58855985    -0.00070
C683        C  0.02536739  0.00075016  0.62234491    -0.08640
C684        C  0.50082754  0.98174001  0.66318830    -0.06020
C685        C  0.46632151  0.97661115  0.66307968    -0.00080
C686        C  0.45874472  0.99660660  0.62681657    -0.08370
C687        C  0.42321369  0.99494711  0.62951885     0.61830
H688        H  0.47852452  0.53172563  0.55799922     0.12520
H689        H  0.00682039  0.96709163  0.69222542     0.12540
C690        C  0.05611760  0.49443392  0.61111724     0.62060
F691        F  0.42928627  0.53110323  0.62699375    -0.23100
F692        F  0.40134142  0.97451568  0.67162661    -0.20430
F693        F  0.40557464  0.97827545  0.59278304    -0.20110
F694        F  0.08461405  0.51344084  0.63500361    -0.20160
F695        F  0.06867396  0.50669926  0.56360280    -0.20480
F696        F  0.04451294  0.95661463  0.62199111    -0.23160
C697        C  0.05414381  0.67371501  0.40691237    -0.05990
C698        C  0.08189360  0.66706348  0.41979659    -0.00070
C699        C  0.10849978  0.69348660  0.44533390    -0.08640
C700        C  0.10076275  0.71898756  0.46408214    -0.06020
C701        C  0.06480468  0.70884604  0.47032125    -0.00080
C702        C  0.04721264  0.69754774  0.43043011    -0.08550
C703        C  0.02285612  0.71139427  0.41273364     0.61830
H704        H  0.03749406  0.65977570  0.38039261     0.12520
H705        H  0.11806699  0.73683486  0.48739866     0.12540
C706        C  0.14101427  0.69162158  0.45986073     0.62060
F707        F  0.53688876  0.73272138  0.36772761    -0.23100
F708        F  0.01983827  0.73380964  0.44226548    -0.20430
F709        F  0.98923067  0.68137136  0.41051915    -0.20110
F710        F  0.16228518  0.69532507  0.42038585    -0.20160
F711        F  0.13015133  0.65751197  0.48939555    -0.20480
F712        F  0.16189776  0.72027463  0.48434672    -0.23160
C713        C  0.36416586  0.86785329  0.92839075    -0.05990
C714        C  0.34768169  0.88926092  0.91319334    -0.00070
C715        C  0.33565151  0.88497696  0.86760647    -0.08640
C716        C  0.34659209  0.86692204  0.83673311    -0.06020
C717        C  0.36854738  0.85124894  0.84943771    -0.00080
C718        C  0.37550810  0.85010872  0.89769189    -0.08550
C719        C  0.39741041  0.83294756  0.91608762     0.61830
H720        H  0.37286366  0.86980069  0.96343697     0.12520
H721        H  0.33876299  0.86640919  0.80118631     0.12540
C722        C  0.31054531  0.89822195  0.85054624     0.62060
F723        F  0.40112653  0.83420043  0.96373637    -0.23100
F724        F  0.43116637  0.85270689  0.89105531    -0.20430
F725        F  0.38090194  0.79543180  0.91067081    -0.20110
F726        F  0.32499552  0.92291518  0.80771368    -0.20160
F727        F  0.30303996  0.91597439  0.88299499    -0.20480
F728        F  0.27879862  0.86716133  0.84388149    -0.23160
C729        C  0.06523169  0.61287993  0.12618908    -0.05990
C730        C  0.06369250  0.61546476  0.17537919    -0.00070
C731        C  0.03051253  0.61156887  0.19406147    -0.08640
C732        C  0.49931835  0.59665483  0.16854320    -0.06020
C733        C  0.50024507  0.59096748  0.12083743    -0.00080
C734        C  0.03536900  0.60425319  0.09860327    -0.08550
C735        C  0.04156170  0.61389437  0.04493421     0.61830
H736        H  0.09048032  0.61905926  0.10865036     0.12520
H737        H  0.47413889  0.59122237  0.18541112     0.12540
C738        C  0.52945926  0.63078381  0.23511789     0.62060
F739        F  0.07675194  0.62752626  0.02775668    -0.23100
F740        F  0.03345971  0.64177024  0.03032535    -0.20430
F741        F  0.01953441  0.58250389  0.02545605    -0.20110
F742        F  0.53897905  0.66768285  0.21705387    -0.20160
F743        F  0.05293506  0.63199590  0.26676600    -0.20480
F744        F  0.49551804  0.61262038  0.25957398    -0.23160
C745        C  0.29266777  0.03310337  0.94302806    -0.05990
C746        C  0.30435780  0.03217004  0.98797156    -0.00070
C747        C  0.28220218  0.02835086  0.02865223    -0.08640
C748        C  0.24840450  0.52346248  0.02277395    -0.06020
C749        C  0.23584621  0.52212903  0.97839630    -0.00080
C750        C  0.25874266  0.02849521  0.93730094    -0.08550
C751        C  0.24708692  0.02876970  0.88790014     0.61830
H752        H  0.31009929  0.03651829  0.91249398     0.12520
H753        H  0.23062818  0.51901101  0.05351951     0.12540
C754        C  0.29239149  0.02609878  0.07872723     0.62060
F755        F  0.27306372  0.53412000  0.85342672    -0.23100
F756        F  0.24000494  0.55782822  0.87686226    -0.20430
F757        F  0.21675331  0.99456944  0.88599955    -0.20110
F758        F  0.32198921  0.55994487  0.08357023    -0.20160
F759        F  0.29960471  0.99714705  0.08766438    -0.20480
F760        F  0.26524442  0.01859817  0.11287031    -0.23160
C761        C  0.50789612  0.48477991  0.06920074    -0.05990
C762        C  0.47451843  0.95154557  0.07636877    -0.00070
C763        C  0.46941844  0.92142303  0.05424098    -0.08640
C764        C  0.99104963  0.93061731  0.01194787    -0.06020
C765        C  0.01963499  0.96782262  0.99777595    -0.00080
C766        C  0.02759869  0.49620434  0.02540211    -0.08550
C767        C  0.05690561  0.53769337  0.00957959     0.61830
H768        H  0.51306457  0.50697569  0.08896023     0.12520
H769        H  0.98758957  0.90879664  0.99199897     0.12540
C770        C  0.43654365  0.88266468  0.06862048     0.62060
F771        F  0.04710208  0.55347755  0.97154526    -0.23100
F772        F  0.08961447  0.54218911  0.99605146    -0.20430
F773        F  0.06240306  0.05791486  0.04593932    -0.20110
F774        F  0.43925000  0.35597533  0.04655313    -0.20160
F775        F  0.40656259  0.88392223  0.05665574    -0.20480
F776        F  0.43272347  0.87107633  0.11705048    -0.23160
C777        C  0.48171339  0.56595783  0.86476976    -0.05990
C778        C  0.44621447  0.53819867  0.86599812    -0.00070
C779        C  0.43513402  0.51705141  0.82868399    -0.08640
C780        C  0.46107277  0.52018790  0.79555511    -0.06020
C781        C  0.49693039  0.54638997  0.79596448    -0.00080
C782        C  0.50745640  0.56880132  0.83197638    -0.08550
C783        C  0.04595602  0.59428119  0.83690711     0.61830
H784        H  0.48955719  0.58189528  0.89365800     0.12520
H785        H  0.45288433  0.50499545  0.76594500     0.12540
C786        C  0.39700783  0.99112568  0.82106106     0.62060
F787        F  0.05100915  0.60834590  0.87900632    -0.23100
F788        F  0.06048592  0.62454023  0.79995137    -0.20430
F789        F  0.06243386  0.57319123  0.83636019    -0.20110
F790        F  0.37215993  0.99052181  0.85289235    -0.20160
F791        F  0.39195190  0.95525479  0.82395700    -0.20480
F792        F  0.39145382  0.00255505  0.77598579    -0.23160
C793        C  0.50571070  0.94325513  0.16352757    -0.05990
C794        C  0.01982017  0.92124495  0.14854189    -0.00070
C795        C  0.99894772  0.88218105  0.17217090    -0.08640
C796        C  0.46744064  0.86884307  0.20787405    -0.06020
C797        C  0.45166346  0.89142940  0.21649282    -0.00080
C798        C  0.47102799  0.92878174  0.18784699    -0.08550
C799        C  0.45580996  0.95541071  0.18523699     0.61830
H800        H  0.02135365  0.97365663  0.15387790     0.12520
H801        H  0.45550225  0.84088888  0.22922169     0.12540
C802        C  0.01104384  0.85532882  0.16140679     0.62060
F803        F  0.47228442  0.98572545  0.14936830    -0.23100
F804        F  0.46131672  0.97281004  0.22325796    -0.20430
F805        F  0.41972407  0.93549420  0.18082285    -0.20110
F806        F  0.04540456  0.86822006  0.17288984    -0.20160
F807        F  0.01070608  0.85357443  0.11349610    -0.20480
F808        F  0.98900491  0.81919565  0.18684854    -0.23160
C809        C  0.42036606  0.52180755  0.46412018    -0.05990
C810        C  0.38527944  0.99317536  0.48474294    -0.00070
C811        C  0.37267060  0.00129423  0.52582207    -0.08640
C812        C  0.39625911  0.53462321  0.54604613    -0.06020
C813        C  0.43308527  0.55990071  0.52798563    -0.00080
C814        C  0.44354028  0.55409163  0.48383278    -0.08550
C815        C  0.47811159  0.58441607  0.45444663     0.61830
H816        H  0.43022288  0.51952823  0.43055631     0.12520
H817        H  0.38638271  0.53970593  0.57780222     0.12540
C818        C  0.33469916  0.97473603  0.54829207     0.62060
F819        F  0.47990309  0.57888541  0.40801350    -0.23100
F820        F  0.00685062  0.58523364  0.47402971    -0.20430
F821        F  0.48050030  0.61895462  0.45341353    -0.20110
F822        F  0.32982385  0.93912429  0.56337158    -0.20160
F823        F  0.31149267  0.97242227  0.51529916    -0.20480
F824        F  0.32653132  0.98697423  0.58701255    -0.23160
C825        C  0.19767667  0.76550879  0.31838313    -0.05990
C826        C  0.19649899  0.73070766  0.32322615    -0.00070
C827        C  0.22619789  0.72835921  0.33810532    -0.08640
C828        C  0.25569547  0.76073363  0.34923154    -0.06020
C829        C  0.25689969  0.79547642  0.34472267    -0.00080
C830        C  0.22768700  0.79826535  0.32848087    -0.08550
C831        C  0.22898578  0.83595480  0.31950934     0.61830
H832        H  0.17516734  0.76695828  0.30558543     0.12520
H833        H  0.27850522  0.75935763  0.36095411     0.12540
C834        C  0.22749719  0.69228522  0.34001920     0.62060
F835        F  0.19976563  0.83319724  0.29847153    -0.23100
F836        F  0.25947422  0.86239525  0.28951109    -0.20430
F837        F  0.22925450  0.84849725  0.36192957    -0.20110
F838        F  0.22631815  0.68366490  0.29488289    -0.20160
F839        F  0.19882830  0.66296748  0.37022970    -0.20480
F840        F  0.25846775  0.69580059  0.35626188    -0.23160
C841        C  0.01633954  0.47835479  0.28167981    -0.05990
C842        C  0.03552661  0.47060786  0.31493529    -0.00070
C843        C  0.01369248  0.94570510  0.35520663    -0.08640
C844        C  0.48825902  0.95315057  0.37480945    -0.06020
C845        C  0.48307090  0.98161677  0.34836795    -0.00080
C846        C  0.49767337  0.99494456  0.29939690    -0.08550
C847        C  0.50172664  0.03097883  0.27125481     0.61830
H848        H  0.02759028  0.48655817  0.24475323     0.12520
H849        H  0.47267357  0.93691954  0.40861230     0.12540
C850        C  0.01695478  0.91223219  0.37552043     0.62060
F851        F  0.51840787  0.55946000  0.29747412    -0.23100
F852        F  0.46979135  0.02794137  0.26061529    -0.20430
F853        F  0.52276294  0.04098367  0.22867681    -0.20110
F854        F  0.02763317  0.41539042  0.42061808    -0.20160
F855        F  0.04166345  0.40945246  0.34745231    -0.20480
F856        F  0.98426231  0.87940136  0.37843556    -0.23160
C857        C  0.35563520  0.80348421  0.57392104    -0.05990
C858        C  0.39082120  0.81132155  0.56911503    -0.00070
C859        C  0.40910404  0.82241876  0.52298506    -0.08640
C860        C  0.39926152  0.84138029  0.48808585    -0.06020
C861        C  0.36855361  0.84345533  0.49733211    -0.00080
C862        C  0.34425047  0.82093420  0.53893133    -0.08550
C863        C  0.30811680  0.81774569  0.54851843     0.61830
H864        H  0.34045740  0.79102835  0.60876986     0.12520
H865        H  0.41571512  0.85491657  0.45411175     0.12540
C866        C  0.44064009  0.81779057  0.51104764     0.62060
F867        F  0.29107866  0.79741623  0.59322315    -0.23100
F868        F  0.28611795  0.79916118  0.51570904    -0.20430
F869        F  0.31237691  0.85342049  0.54571696    -0.20110
F870        F  0.44582064  0.79702178  0.54877675    -0.20160
F871        F  0.47120439  0.85288677  0.49851592    -0.20480
F872        F  0.43453253  0.79883395  0.47303124    -0.23160
C873        C  0.33220156  0.92125949  0.20093289    -0.05990
C874        C  0.35130873  0.94453755  0.23308644    -0.00070
C875        C  0.35210183  0.97920971  0.23308262    -0.08640
C876        C  0.34309379  0.99409327  0.19255063    -0.06020
C877        C  0.33745318  0.97618181  0.15310358    -0.00080
C878        C  0.32355494  0.93669940  0.16085309    -0.08550
C879        C  0.30716778  0.91287125  0.12311773     0.61830
H880        H  0.32779265  0.89280191  0.20401374     0.12520
H881        H  0.34863931  0.02300179  0.18787563     0.12540
C882        C  0.36275637  0.00041201  0.27440097     0.62060
F883        F  0.27399642  0.88238475  0.14182317    -0.23100
F884        F  0.32871583  0.89949735  0.10834682    -0.20430
F885        F  0.30296963  0.93341860  0.08410228    -0.20110
F886        F  0.39857691  0.01471939  0.27832691    -0.20160
F887        F  0.34282449  0.97624143  0.31591881    -0.20480
F888        F  0.35658354  0.03039551  0.26874340    -0.23160
O889        O  0.78584283  0.34569832  0.38818301    -0.81110
O890        O  0.93899373  0.47145420  0.40599309    -0.65800
O891        O  0.84949911  0.40401896  0.37331079    -1.12400
C892        C  0.92796048  0.38829613  0.26293518     1.05780
O893        O  0.93490797  0.48820079  0.33504170    -0.79000
O894        O  0.90379078  0.45576564  0.26611968    -0.66580
Ni895      Ni  0.81355532  0.38526578  0.42564486     1.34870
C896        C  0.87150188  0.43292780  0.26330252     0.84520
O897        O  0.87751209  0.46765742  0.41449807    -0.79540
O898        O  0.83937528  0.42504881  0.46981859    -0.89820
C899        C  0.95465505  0.48764112  0.36545475     0.84090
O900        O  0.83110829  0.35537142  0.45225539    -0.68020
O901        O  0.94652258  0.41885859  0.27671928    -0.87310
C902        C  0.86231315  0.36856917  0.46320478     0.84920
C903        C  0.86485335  0.45988453  0.45640673     1.06490
H904        H  0.92206760  0.40351549  0.36929893     0.38290
O905        O  0.91006675  0.41472894  0.35194021    -1.09970
O906        O  0.85588110  0.39960678  0.28450103    -0.66620
Ni907      Ni  0.86722407  0.37689469  0.33646983     1.26350
O908        O  0.88744241  0.40268155  0.44694696    -0.66850
O909        O  0.89460001  0.36459766  0.28440474    -0.79140
C910        C  0.78976266  0.32820557  0.35610199     0.84300
O911        O  0.81983695  0.33590199  0.33424199    -0.66320
Ni912      Ni  0.93894463  0.45363610  0.30292593     1.27450
Ni913      Ni  0.89327174  0.43810614  0.38959876     1.26060
H914        H  0.84288769  0.41876007  0.35154817     0.38850
O915        O  0.85915795  0.55233789  0.01938015    -0.81110
O916        O  0.92913765  0.46483161  0.08829210    -0.65800
O917        O  0.90848631  0.03149025  0.01456781    -1.12400
C918        C  0.86174956  0.42599480  0.93346595     1.05780
O919        O  0.95869605  0.48128097  0.01814907    -0.79000
O920        O  0.94711885  0.01183827  0.94158159    -0.66580
Ni921      Ni  0.90440387  0.06784122  0.04457219     1.34870
C922        C  0.92961123  0.02068717  0.91380044     0.84520
O923        O  0.95144198  0.03527139  0.09536636    -0.79540
O924        O  0.95137442  0.08812601  0.07233371    -0.89820
C925        C  0.95122113  0.46383652  0.06058157     0.84090
O926        O  0.87751931  0.53369604  0.10175979    -0.68020
O927        O  0.89554585  0.44288973  0.92817292    -0.87310
C928        C  0.86527058  0.49825669  0.11288564     0.84920
C929        C  0.96549818  0.07068781  0.09510605     1.06490
H930        H  0.87848483  0.43999408  0.03247123     0.38290
O931        O  0.89512230  0.46462586  0.01402566    -1.09970
O932        O  0.89787793  0.01114534  0.92597545    -0.66620
Ni933      Ni  0.87145376  0.48701559  0.98706673     1.26350
O934        O  0.87859017  0.48118513  0.09427128    -0.66850
O935        O  0.84468480  0.43954288  0.95627105    -0.79140
C936        C  0.83796822  0.53158345  0.99193667     0.84300
O937        O  0.84319034  0.50943440  0.96961847    -0.66320
Ni938      Ni  0.92739872  0.46168019  0.97394342     1.27450
Ni939      Ni  0.92116022  0.00048738  0.05369064     1.26060
H940        H  0.92854749  0.04717932  0.99057964     0.38850
O941        O  0.57444833  0.07412018  0.59678388    -0.81110
O942        O  0.52318387  0.16142414  0.69926602    -0.65800
O943        O  0.52882598  0.08657306  0.64094317    -1.12400
C944        C  0.54685151  0.17976885  0.51370887     1.05780
O945        O  0.49231476  0.16644760  0.63800582    -0.79000
O946        O  0.45625782  0.11519994  0.57142359    -0.66580
Ni947      Ni  0.55419234  0.06229759  0.66092945     1.34870
C948        C  0.96122326  0.09079957  0.55440485     0.84520
O949        O  0.01064412  0.09026543  0.73144199    -0.79540
O950        O  0.03240471  0.05083839  0.72705972    -0.89820
C951        C  0.50397626  0.17388804  0.67839733     0.84090
O952        O  0.59506320  0.10770610  0.66737226    -0.68020
O953        O  0.52290551  0.17911551  0.54176764    -0.87310
C954        C  0.59653381  0.12037330  0.70463478     0.84920
C955        C  0.01530852  0.06347959  0.74886344     1.06490
H956        H  0.56326795  0.17982661  0.60841332     0.38290
O957        O  0.54419740  0.15366530  0.61492808    -1.09970
O958        O  0.49194404  0.09258434  0.55927087    -0.66620
Ni959      Ni  0.54338774  0.11895734  0.57819048     1.26350
O960        O  0.57723969  0.13648845  0.70756699    -0.66850
O961        O  0.55638675  0.15488544  0.52201254    -0.79140
C962        C  0.55056332  0.06095726  0.56968549     0.84300
O963        O  0.54622719  0.08452775  0.54309434    -0.66320
Ni964      Ni  0.50075405  0.13884736  0.59588966     1.27450
Ni965      Ni  0.53070615  0.12389164  0.67531302     1.26060
H966        H  0.00387520  0.06768383  0.64351312     0.38850
O967        O  0.55566352  0.01882447  0.36180373    -0.81110
O968        O  0.64013905  0.17244936  0.33525360    -0.65800
O969        O  0.59273376  0.09654276  0.33077483    -1.12400
C970        C  0.66945274  0.09420124  0.21781628     1.05780
O971        O  0.66477874  0.19879119  0.26325732    -0.79000
O972        O  0.62554322  0.15048340  0.20242158    -0.66580
Ni973      Ni  0.55300994  0.06331858  0.37362462     1.34870
C974        C  0.59504166  0.12004076  0.20655997     0.84520
O975        O  0.60859211  0.12919141  0.41347824    -0.79540
O976        O  0.55507269  0.10883877  0.38822991    -0.89820
C977        C  0.66631397  0.19853092  0.30693510     0.84090
O978        O  0.57467779  0.06264132  0.42940337    -0.68020
O979        O  0.67892766  0.12901193  0.20634886    -0.87310
C980        C  0.59444841  0.04933104  0.42906860     0.84920
C981        C  0.58169307  0.13328511  0.40688149     1.06490
H982        H  0.67341183  0.11957702  0.30303020     0.38290
O983        O  0.65429386  0.12462268  0.29746602    -1.09970
O984        O  0.58991724  0.09206820  0.23764537    -0.66620
Ni985      Ni  0.61520605  0.08070167  0.28841391     1.26350
O986        O  0.62297681  0.06995307  0.39725451    -0.66850
O987        O  0.64235408  0.07063475  0.24704269    -0.79140
C988        C  0.56128131  0.00895020  0.32352719     0.84300
O989        O  0.57925185  0.03295641  0.28741277    -0.66320
Ni990      Ni  0.66854368  0.16144443  0.23657296     1.27450
Ni991      Ni  0.63316418  0.12363899  0.36122816     1.26060
H992        H  0.58793130  0.11451065  0.31253692     0.38850
O993        O  0.56517730  0.46084389  0.01373239    -0.81110
O994        O  0.67530747  0.98217286  0.01085704    -0.65800
O995        O  0.63060633  0.01265792  0.00081118    -1.12400
C996        C  0.59695401  0.44974118  0.87100656     1.05780
O997        O  0.68615092  0.02108466  0.94484506    -0.79000
O998        O  0.65357118  0.02736386  0.86511604    -0.66580
Ni999      Ni  0.59734394  0.99890706  0.04771547     1.34870
C1000       C  0.64189351  0.05107897  0.86849203     0.84520
O1001       O  0.64646890  0.98425258  0.08961875    -0.79540
O1002       O  0.63300590  0.02976225  0.08255725    -0.89820
C1003       C  0.69732278  0.00874142  0.97832506     0.84090
O1004       O  0.56526564  0.47886151  0.10064345    -0.68020
O1005       O  0.62396220  0.44721768  0.87841565    -0.87310
C1006       C  0.55524330  0.44427589  0.10978171     0.84920
C1007       C  0.65199025  0.01601299  0.09812828     1.06490
H1008       H  0.59342827  0.43237796  0.96451835     0.38290
O1009       O  0.61365585  0.45622588  0.96765221    -1.09970
O1010       O  0.62566663  0.04697034  0.90804972    -0.66620
Ni1011     Ni  0.61531487  0.49930460  0.93933465     1.26350
O1012       O  0.57413793  0.43392967  0.08272996    -0.66850
O1013       O  0.59296346  0.47505953  0.88611605    -0.79140
C1014       C  0.55045943  0.46911524  0.98256223     0.84300
O1015       O  0.56886104  0.49004159  0.94643981    -0.66320
Ni1016     Ni  0.65415495  0.48362932  0.91241907     1.27450
Ni1017     Ni  0.62632330  0.96483470  0.03418752     1.26060
H1018       H  0.65275078  0.03598430  0.00050464     0.38850
O1019       O  0.93627858  0.27178390  0.73701810    -0.81110
O1020       O  0.93819179  0.42493986  0.72428387    -0.65800
O1021       O  0.92443394  0.32909448  0.71205303    -1.12400
C1022       C  0.50528530  0.40407851  0.57061058     1.05780
O1023       O  0.91852738  0.41776381  0.65655701    -0.79000
O1024       O  0.90723159  0.35952050  0.61414477    -0.66580
Ni1025     Ni  0.91802786  0.29730683  0.77137421     1.34870
C1026       C  0.91207578  0.33340163  0.60369517     0.84520
O1027       O  0.89123299  0.35944390  0.76874887    -0.79540
O1028       O  0.89898731  0.31901052  0.81610598    -0.89820
C1029       C  0.93685266  0.43978002  0.68423832     0.84090
O1030       O  0.96469397  0.33036076  0.78113547    -0.68020
O1031       O  0.47472691  0.40116601  0.56790389    -0.87310
C1032       C  0.47985782  0.36585693  0.77710228     0.84920
C1033       C  0.88681331  0.34177853  0.80980117     1.06490
H1034       H  0.48625510  0.41469167  0.66937042     0.38290
O1035       O  0.96347934  0.39462627  0.66438055    -1.09970
O1036       O  0.93797170  0.33019093  0.61673372    -0.66620
Ni1037     Ni  0.96831096  0.35314214  0.66360975     1.26350
O1038       O  0.96651667  0.38569820  0.75974995    -0.66850
O1039       O  0.50910815  0.38465788  0.60830963    -0.79140
C1040       C  0.96071808  0.28026206  0.70319557     0.84300
O1041       O  0.97512429  0.31051309  0.67173738    -0.66320
Ni1042     Ni  0.94616579  0.40952915  0.61202317     1.27450
Ni1043     Ni  0.92907234  0.37620627  0.71920327     1.26060
H1044       H  0.90313554  0.31541113  0.69715589     0.38850
C1045       C  0.57342343  0.43360045  0.79753674    -0.05990
C1046       C  0.56995676  0.42352416  0.84640790    -0.00070
C1047       C  0.53978648  0.39005326  0.87098161    -0.08640
C1048       C  0.51104876  0.37092992  0.84602483    -0.06020
C1049       C  0.51296068  0.38361412  0.79777805    -0.00080
C1050       C  0.54573997  0.41240952  0.77223067    -0.08550
C1051       C  0.55323338  0.42211450  0.71929226     0.61830
H1052       H  0.59779408  0.45820462  0.77911964     0.12520
H1053       H  0.98635047  0.34696445  0.86441805     0.12540
C1054       C  0.53712873  0.37525280  0.92315238     0.62060
F1055       F  0.58455688  0.42333393  0.70486680    -0.23100
F1056       F  0.55745952  0.45741545  0.70615456    -0.20430
F1057       F  0.52647614  0.39599357  0.69744709    -0.20110
F1058       F  0.03399898  0.39905521  0.94972812    -0.20160
F1059       F  0.56715994  0.37310759  0.93217413    -0.20480
F1060       F  0.00763219  0.33940071  0.93727586    -0.23160
C1061       C  0.51876556  0.44869392  0.49444531    -0.05990
C1062       C  0.53362281  0.43382453  0.52748473    -0.00070
C1063       C  0.57209210  0.45316917  0.51881149    -0.08640
C1064       C  0.59205460  0.98832563  0.48329795    -0.06020
C1065       C  0.57539115  0.00764059  0.45990038    -0.00080
C1066       C  0.53666324  0.48665492  0.47130725    -0.08550
C1067       C  0.51190603  0.00329995  0.46756512     0.61830
H1068       H  0.49049234  0.43200329  0.49193731     0.12520
H1069       H  0.62083578  0.00226265  0.47698794     0.12540
C1070       C  0.59154649  0.43591783  0.54487933     0.62060
F1071       F  0.97715875  0.47809615  0.48794995    -0.23100
F1072       F  0.51019707  0.01621896  0.42201783    -0.20430
F1073       F  0.52408399  0.03290702  0.49133320    -0.20110
F1074       F  0.57847124  0.39953349  0.53608639    -0.20160
F1075       F  0.58648448  0.43441762  0.59316217    -0.20480
F1076       F  0.62785749  0.45660165  0.53018303    -0.23160
C1077       C  0.70525069  0.09818505  0.14789933    -0.05990
C1078       C  0.68911989  0.07979655  0.19405625    -0.00070
C1079       C  0.68099170  0.04204737  0.20886687    -0.08640
C1080       C  0.67526313  0.02003208  0.17376771    -0.06020
C1081       C  0.67996712  0.03680638  0.12640057    -0.00080
C1082       C  0.70095166  0.07650219  0.11299051    -0.08550
C1083       C  0.71384221  0.09632547  0.06199521     0.61830
H1084       H  0.71538042  0.12825056  0.13736784     0.12520
H1085       H  0.66195210  0.98948226  0.18368342     0.12540
C1086       C  0.67362968  0.02340099  0.26045269     0.62060
F1087       F  0.74944242  0.12410876  0.05831297    -0.23100
F1088       F  0.69415013  0.11294408  0.04741954    -0.20430
F1089       F  0.71083206  0.07152095  0.03229530    -0.20110
F1090       F  0.63750573  0.99766015  0.27197225    -0.20160
F1091       F  0.68445484  0.04976479  0.29042362    -0.20480
F1092       F  0.69226183  0.00445298  0.26759469    -0.23160
C1093       C  0.62656361  0.12635957  0.78568360    -0.05990
C1094       C  0.61678001  0.10972653  0.74425534    -0.00070
C1095       C  0.62557059  0.08010612  0.74230394    -0.08640
C1096       C  0.63730194  0.06571503  0.78157868    -0.06020
C1097       C  0.64058226  0.07754161  0.82517065    -0.00080
C1098       C  0.63694505  0.11024007  0.82629922    -0.08550
C1099       C  0.64318256  0.12781587  0.87071178     0.61830
H1100       H  0.62402133  0.15084374  0.78759069     0.12520
H1101       H  0.64091340  0.04181083  0.78013391     0.12540
C1102       C  0.61829408  0.05859264  0.70176891     0.62060
F1103       F  0.64491374  0.16246762  0.86268710    -0.23100
F1104       F  0.67508472  0.13342454  0.88582544    -0.20430
F1105       F  0.61561163  0.10425816  0.90629810    -0.20110
F1106       F  0.63487269  0.08284879  0.65899148    -0.20160
F1107       F  0.58185230  0.03811891  0.70293396    -0.20480
F1108       F  0.63022522  0.03298746  0.70579762    -0.23160
C1109       C  0.94739805  0.21441801  0.70757233    -0.05990
C1110       C  0.97321520  0.25294580  0.70156125    -0.00070
C1111       C  0.50995593  0.26400363  0.69853818    -0.08640
C1112       C  0.51947730  0.23608650  0.69731008    -0.06020
C1113       C  0.49350519  0.19791436  0.69977730    -0.00080
C1114       C  0.95688952  0.18663866  0.70733988    -0.08550
C1115       C  0.92677221  0.14577644  0.71319159     0.61830
H1116       H  0.91934913  0.20589233  0.71168897     0.12520
H1117       H  0.54731042  0.24427061  0.69082416     0.12540
C1118       C  0.53906300  0.30494746  0.69654201     0.62060
F1119       F  0.90331378  0.13753992  0.75284385    -0.23100
F1120       F  0.93868575  0.12026272  0.71915736    -0.20430
F1121       F  0.90859395  0.14085358  0.67361747    -0.20110
F1122       F  0.53163460  0.31920714  0.73362930    -0.20160
F1123       F  0.54117018  0.32649233  0.65386284    -0.20480
F1124       F  0.57218054  0.30838271  0.70032520    -0.23160
C1125       C  0.98467082  0.01813331  0.58770958    -0.05990
C1126       C  0.51922121  0.02365767  0.58851487    -0.00070
C1127       C  0.52547847  0.50083127  0.62240726    -0.08640
C1128       C  0.00092287  0.48178428  0.66320054    -0.06020
C1129       C  0.96641397  0.47664956  0.66309320    -0.00080
C1130       C  0.95883848  0.49666409  0.62685653    -0.08370
C1131       C  0.92330223  0.49499327  0.62957370     0.61830
H1132       H  0.97843286  0.03166214  0.55792134     0.12520
H1133       H  0.50688929  0.46705501  0.69221877     0.12540
C1134       C  0.55600075  0.99433067  0.61109625     0.62060
F1135       F  0.92921563  0.03108019  0.62690652    -0.23100
F1136       F  0.90143473  0.47454973  0.67168164    -0.20430
F1137       F  0.90566379  0.47832611  0.59283532    -0.20110
F1138       F  0.58451755  0.01337932  0.63492975    -0.20160
F1139       F  0.56852475  0.00654532  0.56357040    -0.20480
F1140       F  0.54459055  0.45668185  0.62193386    -0.23160
C1141       C  0.55426620  0.17375828  0.40692497    -0.05990
C1142       C  0.58197894  0.16706100  0.41987073    -0.00070
C1143       C  0.60857508  0.19345570  0.44544386    -0.08640
C1144       C  0.60084615  0.21896799  0.46417749    -0.06020
C1145       C  0.56489264  0.20885634  0.47035435    -0.00080
C1146       C  0.54734164  0.19760139  0.43042432    -0.08550
C1147       C  0.52300233  0.21146310  0.41270533     0.61830
H1148       H  0.53763079  0.15983659  0.38038391     0.12520
H1149       H  0.61813480  0.23679405  0.48752368     0.12540
C1150       C  0.64105243  0.19153794  0.46003231     0.62060
F1151       F  0.03709911  0.23284855  0.36773101    -0.23100
F1152       F  0.51998016  0.23387897  0.44223247    -0.20430
F1153       F  0.48937726  0.18144639  0.41047196    -0.20110
F1154       F  0.66235180  0.19523846  0.42058953    -0.20160
F1155       F  0.63013598  0.15740870  0.48955320    -0.20480
F1156       F  0.66192431  0.22016311  0.48456223    -0.23160
C1157       C  0.86394545  0.36768782  0.92831544    -0.05990
C1158       C  0.84744501  0.38907058  0.91307421    -0.00070
C1159       C  0.83550577  0.38482683  0.86743488    -0.08640
C1160       C  0.84650681  0.36680272  0.83659153    -0.06020
C1161       C  0.86846918  0.35115170  0.84935328    -0.00080
C1162       C  0.87538190  0.35000766  0.89762878    -0.08550
C1163       C  0.89734135  0.33292582  0.91605707     0.61830
H1164       H  0.87259841  0.36962852  0.96338639     0.12520
H1165       H  0.83873268  0.36631217  0.80101547     0.12540
C1166       C  0.81045293  0.39811422  0.85027036     0.62060
F1167       F  0.90104522  0.33420910  0.96370522    -0.23100
F1168       F  0.93110131  0.35273389  0.89103157    -0.20430
F1169       F  0.88089960  0.29540863  0.91066074    -0.20110
F1170       F  0.82501090  0.42286841  0.80749531    -0.20160
F1171       F  0.80286976  0.41581865  0.88271315    -0.20480
F1172       F  0.77873535  0.36708806  0.84345042    -0.23160
C1173       C  0.56528808  0.11302430  0.12624315    -0.05990
C1174       C  0.56382348  0.11574170  0.17538563    -0.00070
C1175       C  0.53068708  0.11188733  0.19412360    -0.08640
C1176       C  0.99942411  0.09686892  0.16856387    -0.06020
C1177       C  0.00029580  0.09108991  0.12088187    -0.00080
C1178       C  0.53538948  0.10435870  0.09872870    -0.08550
C1179       C  0.54149861  0.11380678  0.04505141     0.61830
H1180       H  0.59049973  0.11911468  0.10868755     0.12520
H1181       H  0.97425098  0.09144619  0.18542883     0.12540
C1182       C  0.02996817  0.13157317  0.23471042     0.62060
F1183       F  0.57668270  0.12745921  0.02782151    -0.23100
F1184       F  0.53331953  0.14159690  0.03027284    -0.20430
F1185       F  0.51947222  0.08229044  0.02578727    -0.20110
F1186       F  0.04158652  0.16903029  0.21654143    -0.20160
F1187       F  0.55219586  0.13105136  0.26765179    -0.20480
F1188       F  0.99576454  0.11506162  0.25784570    -0.23160
C1189       C  0.79259511  0.53301856  0.94292605    -0.05990
C1190       C  0.80430457  0.53208653  0.98785643    -0.00070
C1191       C  0.78217449  0.52828950  0.02855295    -0.08640
C1192       C  0.74829473  0.02335017  0.02289716    -0.06020
C1193       C  0.73580479  0.02215666  0.97847710    -0.00080
C1194       C  0.75867558  0.52843444  0.93722643    -0.08550
C1195       C  0.74699407  0.52869563  0.88784014     0.61830
H1196       H  0.81000617  0.53641219  0.91238051     0.12520
H1197       H  0.73046020  0.01875867  0.05365095     0.12540
C1198       C  0.79238665  0.52603846  0.07861612     0.62060
F1199       F  0.77328572  0.03471471  0.85345983    -0.23100
F1200       F  0.74006502  0.05818698  0.87707822    -0.20430
F1201       F  0.71663865  0.49450368  0.88597833    -0.20110
F1202       F  0.82174903  0.05960757  0.08397456    -0.20160
F1203       F  0.79958661  0.49707533  0.08754546    -0.20480
F1204       F  0.76525959  0.51855793  0.11277956    -0.23160
C1205       C  0.00792732  0.98480638  0.06910242    -0.05990
C1206       C  0.97440063  0.45129875  0.07637422    -0.00070
C1207       C  0.96947524  0.42118553  0.05435020    -0.08640
C1208       C  0.49099175  0.43065229  0.01195353    -0.06020
C1209       C  0.51957110  0.46786272  0.99780329    -0.00080
C1210       C  0.52771119  0.99634030  0.02534880    -0.08550
C1211       C  0.55706185  0.03780442  0.00950598     0.61830
H1212       H  0.01306705  0.00702399  0.08881408     0.12520
H1213       H  0.48752756  0.40885479  0.99195992     0.12540
C1214       C  0.93666654  0.38237264  0.06869940     0.62060
F1215       F  0.54724025  0.05364356  0.97154965    -0.23100
F1216       F  0.58971567  0.04222217  0.99584990    -0.20430
F1217       F  0.56226787  0.55794274  0.04598569    -0.20110
F1218       F  0.93930003  0.85595513  0.04664569    -0.20160
F1219       F  0.90666566  0.38346910  0.05644441    -0.20480
F1220       F  0.93271603  0.37087592  0.11716893    -0.23160
C1221       C  0.98185069  0.06609933  0.86467579    -0.05990
C1222       C  0.94628634  0.03850178  0.86594995    -0.00070
C1223       C  0.93506593  0.01733678  0.82865911    -0.08640
C1224       C  0.96091013  0.02027210  0.79553682    -0.06020
C1225       C  0.99682393  0.04629817  0.79592035    -0.00080
C1226       C  0.00749226  0.06871070  0.83191941    -0.08550
C1227       C  0.54601501  0.09422559  0.83681248     0.61830
H1228       H  0.98980682  0.08208155  0.89351459     0.12520
H1229       H  0.95262256  0.00508138  0.76593735     0.12540
C1230       C  0.89703720  0.49096210  0.82091622     0.62060
F1231       F  0.55113855  0.10827483  0.87892472    -0.23100
F1232       F  0.56054651  0.12449515  0.79987201    -0.20430
F1233       F  0.56243395  0.07308186  0.83618595    -0.20110
F1234       F  0.87214194  0.49032632  0.85269629    -0.20160
F1235       F  0.89201499  0.45510156  0.82382668    -0.20480
F1236       F  0.89151651  0.50238719  0.77581743    -0.23160
C1237       C  0.00572497  0.44334643  0.16351441    -0.05990
C1238       C  0.51983823  0.42129973  0.14855077    -0.00070
C1239       C  0.49893709  0.38222248  0.17211489    -0.08640
C1240       C  0.96756066  0.36895885  0.20798034    -0.06020
C1241       C  0.95172707  0.39150285  0.21653689    -0.00080
C1242       C  0.97102855  0.42883270  0.18782412    -0.08550
C1243       C  0.95575236  0.45541509  0.18522991     0.61830
H1244       H  0.52142532  0.47372819  0.15399025     0.12520
H1245       H  0.95566752  0.34102854  0.22938004     0.12540
C1246       C  0.51099504  0.35535566  0.16127896     0.62060
F1247       F  0.97205497  0.48561894  0.14921942    -0.23100
F1248       F  0.96140606  0.47296017  0.22315191    -0.20430
F1249       F  0.91963275  0.43542083  0.18104442    -0.20110
F1250       F  0.54534905  0.36819245  0.17276073    -0.20160
F1251       F  0.51065561  0.35365505  0.11335423    -0.20480
F1252       F  0.48892765  0.31920929  0.18666842    -0.23160
C1253       C  0.92034264  0.02181383  0.46403856    -0.05990
C1254       C  0.88531214  0.49320036  0.48481245    -0.00070
C1255       C  0.87270093  0.50129726  0.52590975    -0.08640
C1256       C  0.89624541  0.03465070  0.54595470    -0.06020
C1257       C  0.93307264  0.05991981  0.52789463    -0.00080
C1258       C  0.94352249  0.05410320  0.48374261    -0.08550
C1259       C  0.97810420  0.08441263  0.45436103     0.61830
H1260       H  0.93019311  0.01952454  0.43047697     0.12520
H1261       H  0.88637058  0.03974297  0.57770384     0.12540
C1262       C  0.83473552  0.47471880  0.54838967     0.62060
F1263       F  0.97989468  0.07887198  0.40793252    -0.23100
F1264       F  0.50682660  0.08516828  0.47397300    -0.20430
F1265       F  0.98052231  0.11896806  0.45331024    -0.20110
F1266       F  0.82988056  0.43911278  0.56344398    -0.20160
F1267       F  0.81151728  0.47240007  0.51541271    -0.20480
F1268       F  0.82656518  0.48693694  0.58712904    -0.23160
C1269       C  0.69776067  0.26555055  0.31840363    -0.05990
C1270       C  0.69658681  0.23075071  0.32328017    -0.00070
C1271       C  0.72630105  0.22842012  0.33812240    -0.08640
C1272       C  0.75580501  0.26080835  0.34921140    -0.06020
C1273       C  0.75699790  0.29554674  0.34469798    -0.00080
C1274       C  0.72777710  0.29832119  0.32845950    -0.08550
C1275       C  0.72907087  0.33600738  0.31945173     0.61830
H1276       H  0.67523879  0.26698456  0.30562700     0.12520
H1277       H  0.77862294  0.25944333  0.36092043     0.12540
C1278       C  0.72760414  0.19234697  0.34003660     0.62060
F1279       F  0.69984572  0.33323252  0.29841116    -0.23100
F1280       F  0.75955437  0.36243676  0.28943753    -0.20430
F1281       F  0.72934490  0.34857529  0.36185361    -0.20110
F1282       F  0.72636969  0.18369233  0.29491334    -0.20160
F1283       F  0.69896493  0.16303830  0.37029964    -0.20480
F1284       F  0.75860095  0.19588574  0.35621110    -0.23160
C1285       C  0.51630884  0.97846257  0.28149827    -0.05990
C1286       C  0.53551049  0.97070297  0.31471792    -0.00070
C1287       C  0.51373229  0.44560009  0.35560446    -0.08640
C1288       C  0.98828670  0.45317228  0.37498458    -0.06020
C1289       C  0.98313931  0.48164928  0.34847528    -0.00080
C1290       C  0.99776122  0.49492457  0.29950223    -0.08550
C1291       C  0.00191850  0.53098124  0.27126684     0.61830
H1292       H  0.52756572  0.98673816  0.24456888     0.12520
H1293       H  0.97268556  0.43697518  0.40879041     0.12540
C1294       C  0.51689596  0.41206510  0.37593549     0.62060
F1295       F  0.01781822  0.05936879  0.29749609    -0.23100
F1296       F  0.97000757  0.52807529  0.26077446    -0.20430
F1297       F  0.02278627  0.54075808  0.22859724    -0.20110
F1298       F  0.52769849  0.91547041  0.42035083    -0.20160
F1299       F  0.54177662  0.90961304  0.34715903    -0.20480
F1300       F  0.48416591  0.37928516  0.37882165    -0.23160
C1301       C  0.85572032  0.30352552  0.57388908    -0.05990
C1302       C  0.89090868  0.31136948  0.56907728    -0.00070
C1303       C  0.90919338  0.32248531  0.52294559    -0.08640
C1304       C  0.89934459  0.34144931  0.48805783    -0.06020
C1305       C  0.86862953  0.34350982  0.49731179    -0.00080
C1306       C  0.84432753  0.32097265  0.53890655    -0.08550
C1307       C  0.80818439  0.31776157  0.54849644     0.61830
H1308       H  0.84054278  0.29105993  0.60873729     0.12520
H1309       H  0.91579857  0.35499806  0.45408558     0.12540
C1310       C  0.94073606  0.31787161  0.51099426     0.62060
F1311       F  0.79114526  0.29741400  0.59319409    -0.23100
F1312       F  0.78619565  0.29918217  0.51567551    -0.20430
F1313       F  0.81242622  0.35342721  0.54571576    -0.20110
F1314       F  0.94592043  0.29709405  0.54870834    -0.20160
F1315       F  0.97129510  0.35297351  0.49848013    -0.20480
F1316       F  0.93463664  0.29893275  0.47296170    -0.23160
C1317       C  0.83223172  0.42127939  0.20102348    -0.05990
C1318       C  0.85139500  0.44462292  0.23309049    -0.00070
C1319       C  0.85223324  0.47932694  0.23298188    -0.08640
C1320       C  0.84318005  0.49414209  0.19243723    -0.06020
C1321       C  0.83747682  0.47614534  0.15305726    -0.00080
C1322       C  0.82356159  0.43666130  0.16091719    -0.08550
C1323       C  0.80710676  0.41275419  0.12327651     0.61830
H1324       H  0.82779397  0.39280655  0.20418600     0.12520
H1325       H  0.84874959  0.52306118  0.18768114     0.12540
C1326       C  0.86301291  0.50065057  0.27418444     0.62060
F1327       F  0.77394948  0.38229196  0.14208941    -0.23100
F1328       F  0.82862640  0.39934524  0.10851210    -0.20430
F1329       F  0.80285900  0.43323987  0.08423939    -0.20110
F1330       F  0.89887342  0.51504236  0.27789132    -0.20160
F1331       F  0.84322981  0.47655929  0.31582065    -0.20480
F1332       F  0.85677652  0.53059001  0.26851380    -0.23160
O1333       O  0.78579731  0.84562149  0.38821816    -0.81110
O1334       O  0.93894083  0.97143137  0.40585939    -0.65800
O1335       O  0.84944028  0.90393264  0.37328802    -1.12400
C1336       C  0.92789966  0.88822677  0.26289748     1.05780
O1337       O  0.93473579  0.98812384  0.33493463    -0.79000
O1338       O  0.90357099  0.95559410  0.26605052    -0.66580
Ni1339     Ni  0.81351822  0.88521431  0.42563789     1.34870
C1340       C  0.87129159  0.93269380  0.26326342     0.84520
O1341       O  0.87745973  0.96761467  0.41441417    -0.79540
O1342       O  0.83935309  0.92502739  0.46977195    -0.89820
C1343       C  0.95453880  0.98761228  0.36529192     0.84090
O1344       O  0.83108836  0.85534327  0.45225440    -0.68020
O1345       O  0.94642055  0.91882757  0.27660947    -0.87310
C1346       C  0.86229551  0.86855512  0.46319544     0.84920
C1347       C  0.86482176  0.95986325  0.45632892     1.06490
H1348       H  0.92203949  0.90349224  0.36921036     0.38290
O1349       O  0.91000336  0.91467106  0.35187179    -1.09970
O1350       O  0.85573336  0.89938532  0.28449075    -0.66620
Ni1351     Ni  0.86716526  0.87678692  0.33648197     1.26350
O1352       O  0.88742273  0.90266122  0.44689931    -0.66850
O1353       O  0.89455923  0.86448908  0.28442549    -0.79140
C1354       C  0.78970934  0.82808902  0.35618484     0.84300
O1355       O  0.81978043  0.83575106  0.33434890    -0.66320
Ni1356     Ni  0.93879656  0.95357272  0.30281007     1.27450
Ni1357     Ni  0.89321352  0.93804992  0.38953037     1.26060
H1358       H  0.84282256  0.91865569  0.35150804     0.38850
O1359       O  0.85914554  0.05249243  0.01955094    -0.81110
O1360       O  0.92930120  0.96505532  0.08800389    -0.65800
O1361       O  0.90841695  0.53123205  0.01455550    -1.12400
C1362       C  0.86182843  0.92635869  0.93331773     1.05780
O1363       O  0.95882846  0.98133379  0.01785351    -0.79000
O1364       O  0.94702975  0.51141535  0.94156167    -0.66580
Ni1365     Ni  0.90443266  0.56771217  0.04435217     1.34870
C1366       C  0.92951161  0.52027453  0.91381836     0.84520
O1367       O  0.95127164  0.53508622  0.09550025    -0.79540
O1368       O  0.95143401  0.58801305  0.07202978    -0.89820
C1369       C  0.95131282  0.96393240  0.06031897     0.84090
O1370       O  0.87745658  0.03367664  0.10186411    -0.68020
O1371       O  0.89562343  0.94344700  0.92777122    -0.87310
C1372       C  0.86531007  0.99825178  0.11286362     0.84920
C1373       C  0.96545187  0.57054687  0.09501080     1.06490
H1374       H  0.87864033  0.94025791  0.03227647     0.38290
O1375       O  0.89525659  0.96490522  0.01385136    -1.09970
O1376       O  0.89780167  0.51079458  0.92601667    -0.66620
Ni1377     Ni  0.87153655  0.98728700  0.98703682     1.26350
O1378       O  0.87875856  0.98131834  0.09420073    -0.66850
O1379       O  0.84474048  0.93981509  0.95625045    -0.79140
C1380       C  0.83798264  0.03177031  0.99205826     0.84300
O1381       O  0.84323554  0.00966933  0.96968665    -0.66320
Ni1382     Ni  0.92748695  0.96199666  0.97360585     1.27450
Ni1383     Ni  0.92101433  0.50024687  0.05384398     1.26060
H1384       H  0.92849926  0.54684943  0.99057426     0.38850
O1385       O  0.57453984  0.57422093  0.59679953    -0.81110
O1386       O  0.52317902  0.66145045  0.69929895    -0.65800
O1387       O  0.52888599  0.58663860  0.64096105    -1.12400
C1388       C  0.54683141  0.67978779  0.51370306     1.05780
O1389       O  0.49230952  0.66646538  0.63803437    -0.79000
O1390       O  0.45626425  0.61519881  0.57147586    -0.66580
Ni1391     Ni  0.55427661  0.56238752  0.66093963     1.34870
C1392       C  0.96121744  0.59080534  0.55452418     0.84520
O1393       O  0.01071417  0.59038518  0.73152974    -0.79540
O1394       O  0.03251948  0.55099777  0.72712925    -0.89820
C1395       C  0.50396264  0.67390285  0.67843091     0.84090
O1396       O  0.59512383  0.60781229  0.66739632    -0.68020
O1397       O  0.52288516  0.67912410  0.54177469    -0.87310
C1398       C  0.59657611  0.62046485  0.70466719     0.84920
C1399       C  0.01541876  0.56362618  0.74894657     1.06490
H1400       H  0.56327161  0.67988562  0.60843269     0.38290
O1401       O  0.54421373  0.65371851  0.61494952    -1.09970
O1402       O  0.49198029  0.59262115  0.55930029    -0.66620
Ni1403     Ni  0.54342962  0.61902169  0.57820991     1.26350
O1404       O  0.57726808  0.63656358  0.70759993    -0.66850
O1405       O  0.55640766  0.65493946  0.52202390    -0.79140
C1406       C  0.55065514  0.56104730  0.56970386     0.84300
O1407       O  0.54630106  0.58460792  0.54311824    -0.66320
Ni1408     Ni  0.50076354  0.63887193  0.59592224     1.27450
Ni1409     Ni  0.53073502  0.62394115  0.67533742     1.26060
H1410       H  0.00393608  0.56776909  0.64360475     0.38850
O1411       O  0.55569731  0.51879591  0.36189232    -0.81110
O1412       O  0.64004965  0.67241202  0.33495942    -0.65800
O1413       O  0.59270875  0.59648732  0.33068107    -1.12400
C1414       C  0.66943736  0.59410565  0.21781798     1.05780
O1415       O  0.66490709  0.69884336  0.26306790    -0.79000
O1416       O  0.62540223  0.65036410  0.20247034    -0.66580
Ni1417     Ni  0.55302022  0.56330246  0.37360244     1.34870
C1418       C  0.59496412  0.61984734  0.20653277     0.84520
O1419       O  0.60859567  0.62927674  0.41330892    -0.79540
O1420       O  0.55505529  0.60884222  0.38810913    -0.89820
C1421       C  0.66630179  0.69852175  0.30677355     0.84090
O1422       O  0.57473779  0.56273280  0.42935976    -0.68020
O1423       O  0.67877339  0.62886740  0.20620654    -0.87310
C1424       C  0.59451322  0.54942949  0.42905297     0.84920
C1425       C  0.58166869  0.63332180  0.40673826     1.06490
H1426       H  0.67341981  0.61959446  0.30295514     0.38290
O1427       O  0.65428183  0.62460248  0.29736854    -1.09970
O1428       O  0.58992639  0.59186750  0.23754202    -0.66620
Ni1429     Ni  0.61522286  0.58061956  0.28841320     1.26350
O1430       O  0.62303011  0.57003954  0.39722029    -0.66850
O1431       O  0.64241605  0.57053745  0.24715476    -0.79140
C1432       C  0.56132279  0.50886611  0.32366596     0.84300
O1433       O  0.57930997  0.53282753  0.28752288    -0.66320
Ni1434     Ni  0.66849329  0.66137023  0.23643083     1.27450
Ni1435     Ni  0.63315011  0.62367310  0.36108616     1.26060
H1436       H  0.58785715  0.61439583  0.31238580     0.38850
O1437       O  0.56509202  0.96078783  0.01370909    -0.81110
O1438       O  0.67535135  0.48220720  0.01083798    -0.65800
O1439       O  0.63067179  0.51272567  0.00082197    -1.12400
C1440       C  0.59693307  0.94966552  0.87100223     1.05780
O1441       O  0.68619976  0.52113361  0.94483479    -0.79000
O1442       O  0.65359827  0.52744238  0.86513352    -0.66580
Ni1443     Ni  0.59741680  0.49898088  0.04772671     1.34870
C1444       C  0.64191940  0.55115513  0.86852459     0.84520
O1445       O  0.64653438  0.48429681  0.08960700    -0.79540
O1446       O  0.63308855  0.52982077  0.08257606    -0.89820
C1447       C  0.69736678  0.50875943  0.97829016     0.84090
O1448       O  0.56521192  0.97876540  0.10064863    -0.68020
O1449       O  0.62393730  0.94713851  0.87843228    -0.87310
C1450       C  0.55518162  0.94417785  0.10976048     0.84920
C1451       C  0.65206852  0.51605715  0.09812740     1.06490
H1452       H  0.59337630  0.93231318  0.96452361     0.38290
O1453       O  0.61361011  0.95615754  0.96765557    -1.09970
O1454       O  0.62569599  0.54704096  0.90808751    -0.66620
Ni1455     Ni  0.61527345  0.99923284  0.93931901     1.26350
O1456       O  0.57407212  0.93384206  0.08268648    -0.66850
O1457       O  0.59293934  0.97498534  0.88609874    -0.79140
C1458       C  0.55040595  0.96910315  0.98252537     0.84300
O1459       O  0.56882380  0.98998287  0.94638767    -0.66320
Ni1460     Ni  0.65411945  0.98356115  0.91243401     1.27450
Ni1461     Ni  0.62637540  0.46489299  0.03418742     1.26060
H1462       H  0.65282093  0.53604786  0.00051241     0.38850
O1463       O  0.93618570  0.77180354  0.73713118    -0.81110
O1464       O  0.93815900  0.92499933  0.72432392    -0.65800
O1465       O  0.92437162  0.82913219  0.71215438    -1.12400
C1466       C  0.50520980  0.90402973  0.57062123     1.05780
O1467       O  0.91843119  0.91774336  0.65664671    -0.79000
O1468       O  0.90714529  0.85951711  0.61420160    -0.66580
Ni1469     Ni  0.91798340  0.79737266  0.77148978     1.34870
C1470       C  0.91199176  0.83339468  0.60377090     0.84520
O1471       O  0.89120891  0.85952120  0.76883984    -0.79540
O1472       O  0.89900744  0.81913867  0.81622529    -0.89820
C1473       C  0.93677996  0.93979896  0.68427550     0.84090
O1474       O  0.96466680  0.83041587  0.78117755    -0.68020
O1475       O  0.47467091  0.90117103  0.56791995    -0.87310
C1476       C  0.47982908  0.86584799  0.77708011     0.84920
C1477       C  0.88683151  0.84190578  0.80990898     1.06490
H1478       H  0.48608051  0.91455659  0.66937354     0.38290
O1479       O  0.96344818  0.89467794  0.66443581    -1.09970
O1480       O  0.93787747  0.83017674  0.61683307    -0.66620
Ni1481     Ni  0.96822243  0.85314518  0.66367902     1.26350
O1482       O  0.96650062  0.88575963  0.75979521    -0.66850
O1483       O  0.50902473  0.88460798  0.60832671    -0.79140
C1484       C  0.96062499  0.78027223  0.70331000     0.84300
O1485       O  0.97503344  0.81051736  0.67184030    -0.66320
Ni1486     Ni  0.94606607  0.90952807  0.61208632     1.27450
Ni1487     Ni  0.92902223  0.87624947  0.71927917     1.26060
H1488       H  0.90306293  0.81544612  0.69727054     0.38850
C1489       C  0.57340957  0.93354832  0.79752494    -0.05990
C1490       C  0.56994112  0.92345524  0.84639416    -0.00070
C1491       C  0.53975341  0.89000054  0.87096411    -0.08640
C1492       C  0.51101652  0.87089668  0.84599880    -0.06020
C1493       C  0.51293225  0.88359927  0.79775665    -0.00080
C1494       C  0.54571609  0.91238743  0.77221423    -0.08550
C1495       C  0.55319733  0.92212320  0.71927684     0.61830
H1496       H  0.59778561  0.95814918  0.77911477     0.12520
H1497       H  0.98636860  0.84697368  0.86441956     0.12540
C1498       C  0.53706979  0.87520600  0.92314515     0.62060
F1499       F  0.58453154  0.92337843  0.70481199    -0.23100
F1500       F  0.55739328  0.95741542  0.70618552    -0.20430
F1501       F  0.52644406  0.89600213  0.69742676    -0.20110
F1502       F  0.03404276  0.89895010  0.94972803    -0.20160
F1503       F  0.56709010  0.87305009  0.93220663    -0.20480
F1504       F  0.00770008  0.83931204  0.93721059    -0.23160
C1505       C  0.51869717  0.94856525  0.49437479    -0.05990
C1506       C  0.53354707  0.93372486  0.52746585    -0.00070
C1507       C  0.57201724  0.95307763  0.51882541    -0.08640
C1508       C  0.59212442  0.48842108  0.48328637    -0.06020
C1509       C  0.57546166  0.50774980  0.45992148    -0.00080
C1510       C  0.53658975  0.98653114  0.47124658    -0.08550
C1511       C  0.51198385  0.50342857  0.46762317     0.61830
H1512       H  0.49042609  0.93186076  0.49185638     0.12520
H1513       H  0.62090349  0.50234614  0.47694511     0.12540
C1514       C  0.59146748  0.93583841  0.54493079     0.62060
F1515       F  0.97701454  0.97792557  0.48772452    -0.23100
F1516       F  0.51023773  0.51629530  0.42207129    -0.20430
F1517       F  0.52419446  0.53307171  0.49132649    -0.20110
F1518       F  0.57840200  0.89944962  0.53615991    -0.20160
F1519       F  0.58638924  0.93435196  0.59320720    -0.20480
F1520       F  0.62778109  0.95652366  0.53025328    -0.23160
C1521       C  0.70533647  0.59817942  0.14794957    -0.05990
C1522       C  0.68917249  0.57975792  0.19408763    -0.00070
C1523       C  0.68107411  0.54201739  0.20887087    -0.08640
C1524       C  0.67535914  0.52002623  0.17374790    -0.06020
C1525       C  0.68005713  0.53682576  0.12639305    -0.00080
C1526       C  0.70104545  0.57652186  0.11301418    -0.08550
C1527       C  0.71394897  0.59637009  0.06202964     0.61830
H1528       H  0.71547042  0.62824803  0.13744601     0.12520
H1529       H  0.66205664  0.48947526  0.18363771     0.12540
C1530       C  0.67372290  0.52335369  0.26044696     0.62060
F1531       F  0.74955898  0.62412215  0.05836427    -0.23100
F1532       F  0.69428781  0.61303230  0.04748166    -0.20430
F1533       F  0.71091034  0.57157706  0.03229575    -0.20110
F1534       F  0.63760253  0.49759740  0.27196901    -0.20160
F1535       F  0.68454170  0.54970469  0.29043535    -0.20480
F1536       F  0.69237043  0.50442040  0.26755855    -0.23160
C1537       C  0.62655626  0.62642312  0.78574953    -0.05990
C1538       C  0.61681577  0.60981823  0.74429592    -0.00070
C1539       C  0.62564110  0.58022518  0.74232730    -0.08640
C1540       C  0.63736757  0.56583065  0.78160448    -0.06020
C1541       C  0.64060807  0.57762600  0.82521400    -0.00080
C1542       C  0.63693667  0.61030164  0.82636383    -0.08550
C1543       C  0.64313379  0.62784964  0.87079747     0.61830
H1544       H  0.62398257  0.65088625  0.78767448     0.12520
H1545       H  0.64100614  0.54194544  0.78014431     0.12540
C1546       C  0.61839760  0.55873374  0.70177328     0.62060
F1547       F  0.64484172  0.66249014  0.86279188    -0.23100
F1548       F  0.67503334  0.63347288  0.88593761    -0.20430
F1549       F  0.61555072  0.60426350  0.90635794    -0.20110
F1550       F  0.63497510  0.58300768  0.65900738    -0.20160
F1551       F  0.58195863  0.53823761  0.70292235    -0.20480
F1552       F  0.63035559  0.53315140  0.70579093    -0.23160
C1553       C  0.94732066  0.71443208  0.70765869    -0.05990
C1554       C  0.97312872  0.75296035  0.70168230    -0.00070
C1555       C  0.50989587  0.76399152  0.69859824    -0.08640
C1556       C  0.51943263  0.73608676  0.69736541    -0.06020
C1557       C  0.49347254  0.69791274  0.69981751    -0.00080
C1558       C  0.95682580  0.68666450  0.70739376    -0.08550
C1559       C  0.92671795  0.64580041  0.71321096     0.61830
H1560       H  0.91926957  0.70589798  0.71176793     0.12520
H1561       H  0.54726940  0.74428305  0.69088609     0.12540
C1562       C  0.53899192  0.80493809  0.69661828     0.62060
F1563       F  0.90324747  0.63753646  0.75286127    -0.23100
F1564       F  0.93864158  0.62029488  0.71915527    -0.20430
F1565       F  0.90854984  0.64089404  0.67362820    -0.20110
F1566       F  0.53154349  0.81918655  0.73370279    -0.20160
F1567       F  0.54110686  0.82648602  0.65393761    -0.20480
F1568       F  0.57211195  0.80838416  0.70042136    -0.23160
C1569       C  0.98476352  0.51821037  0.58781485    -0.05990
C1570       C  0.51932437  0.52373737  0.58853114    -0.00070
C1571       C  0.52536856  0.00075224  0.62239708    -0.08640
C1572       C  0.00084114  0.98177377  0.66315381    -0.06020
C1573       C  0.96633694  0.97664784  0.66305121    -0.00080
C1574       C  0.95875213  0.99662217  0.62677118    -0.08370
C1575       C  0.92322373  0.99496839  0.62947773     0.61830
H1576       H  0.97852042  0.53174074  0.55803564     0.12520
H1577       H  0.50679863  0.96703141  0.69223942     0.12540
C1578       C  0.55611586  0.49441785  0.61110459     0.62060
F1579       F  0.92927576  0.53109640  0.62703029    -0.23100
F1580       F  0.90135372  0.97454758  0.67159002    -0.20430
F1581       F  0.90557792  0.97828984  0.59275018    -0.20110
F1582       F  0.58461058  0.51342426  0.63499289    -0.20160
F1583       F  0.56867646  0.50668144  0.56359153    -0.20480
F1584       F  0.54448808  0.95660168  0.62198421    -0.23160
C1585       C  0.55416094  0.67372105  0.40689033    -0.05990
C1586       C  0.58190976  0.66706705  0.41977330    -0.00070
C1587       C  0.60851417  0.69348501  0.44531757    -0.08640
C1588       C  0.60077736  0.71898442  0.46406987    -0.06020
C1589       C  0.56481953  0.70884289  0.47030763    -0.00080
C1590       C  0.54722956  0.69755118  0.43041356    -0.08550
C1591       C  0.52287434  0.71140104  0.41272193     0.61830
H1592       H  0.53751205  0.65978538  0.38036792     0.12520
H1593       H  0.61807999  0.73682780  0.48739091     0.12540
C1594       C  0.64102379  0.69161313  0.45985119     0.62060
F1595       F  0.03687135  0.73271295  0.36773859    -0.23100
F1596       F  0.51985970  0.73381600  0.44225740    -0.20430
F1597       F  0.48924760  0.68138025  0.41050832    -0.20110
F1598       F  0.66229615  0.69531484  0.42038016    -0.20160
F1599       F  0.63015426  0.65750118  0.48938431    -0.20480
F1600       F  0.66190762  0.72026339  0.48434076    -0.23160
C1601       C  0.86420632  0.86812863  0.92830962    -0.05990
C1602       C  0.84757906  0.88937834  0.91307325    -0.00070
C1603       C  0.83553192  0.88498078  0.86750622    -0.08640
C1604       C  0.84650775  0.86690962  0.83670754    -0.06020
C1605       C  0.86853904  0.85134261  0.84945399    -0.00080
C1606       C  0.87558151  0.85036423  0.89767790    -0.08550
C1607       C  0.89760747  0.83336307  0.91609183     0.61830
H1608       H  0.87297126  0.87021391  0.96331274     0.12520
H1609       H  0.83864864  0.86630479  0.80117555     0.12540
C1610       C  0.81039212  0.89815899  0.85037649     0.62060
F1611       F  0.90142043  0.83478462  0.96369358    -0.23100
F1612       F  0.93132029  0.85314187  0.89093453    -0.20430
F1613       F  0.88116194  0.79580913  0.91086097    -0.20110
F1614       F  0.82482887  0.92281214  0.80751197    -0.20160
F1615       F  0.80285273  0.91593533  0.88275822    -0.20480
F1616       F  0.77866609  0.86705601  0.84374814    -0.23160
C1617       C  0.56524594  0.61289336  0.12618955    -0.05990
C1618       C  0.56371526  0.61549183  0.17537496    -0.00070
C1619       C  0.53053922  0.61159741  0.19406524    -0.08640
C1620       C  0.99929949  0.59663888  0.16852660    -0.06020
C1621       C  0.00023094  0.59094819  0.12082414    -0.00080
C1622       C  0.53538000  0.60426512  0.09861070    -0.08550
C1623       C  0.54156434  0.61388589  0.04494076     0.61830
H1624       H  0.59049040  0.61906271  0.10864883     0.12520
H1625       H  0.97411993  0.59120814  0.18539334     0.12540
C1626       C  0.02939234  0.63070357  0.23515135     0.62060
F1627       F  0.57675398  0.62751971  0.02775827    -0.23100
F1628       F  0.53345455  0.64175291  0.03031331    -0.20430
F1629       F  0.51953716  0.58248196  0.02548529    -0.20110
F1630       F  0.03864733  0.66752414  0.21710788    -0.20160
F1631       F  0.55283973  0.63185427  0.26688145    -0.20480
F1632       F  0.99549213  0.61233993  0.25976713    -0.23160
C1633       C  0.79266352  0.03331063  0.94303089    -0.05990
C1634       C  0.80430377  0.03223455  0.98798720    -0.00070
C1635       C  0.78208620  0.02823125  0.02870399    -0.08640
C1636       C  0.74839028  0.52343557  0.02276589    -0.06020
C1637       C  0.73583724  0.52211149  0.97838499    -0.00080
C1638       C  0.75872697  0.02867269  0.93731236    -0.08550
C1639       C  0.74712477  0.02908606  0.88788929     0.61830
H1640       H  0.81014179  0.03685109  0.91247590     0.12520
H1641       H  0.73061074  0.51897742  0.05351137     0.12540
C1642       C  0.79221867  0.02577668  0.07878720     0.62060
F1643       F  0.77307208  0.53413849  0.85341260    -0.23100
F1644       F  0.74000585  0.55783468  0.87686049    -0.20430
F1645       F  0.71683485  0.99489201  0.88582429    -0.20110
F1646       F  0.82196837  0.55990524  0.08357547    -0.20160
F1647       F  0.79946507  0.99683396  0.08749969    -0.20480
F1648       F  0.76502237  0.01811629  0.11295199    -0.23160
C1649       C  0.00787090  0.48475941  0.06921465    -0.05990
C1650       C  0.97444521  0.95136775  0.07623267    -0.00070
C1651       C  0.96951452  0.92122039  0.05428818    -0.08640
C1652       C  0.49091649  0.93081052  0.01186555    -0.06020
C1653       C  0.51957212  0.96797757  0.99774261    -0.00080
C1654       C  0.52761642  0.49622174  0.02538263    -0.08550
C1655       C  0.55693131  0.53770697  0.00955925     0.61830
H1656       H  0.01302569  0.50695667  0.08896408     0.12520
H1657       H  0.48738019  0.90900045  0.99184868     0.12540
C1658       C  0.93669033  0.88242492  0.06867103     0.62060
F1659       F  0.54712836  0.55350027  0.97153363    -0.23100
F1660       F  0.58963262  0.54219019  0.99601753    -0.20430
F1661       F  0.56249822  0.05804041  0.04595370    -0.20110
F1662       F  0.93929168  0.35594015  0.04660573    -0.20160
F1663       F  0.90670356  0.88353425  0.05637256    -0.20480
F1664       F  0.93272740  0.87097006  0.11715089    -0.23160
C1665       C  0.98169428  0.56595418  0.86479321    -0.05990
C1666       C  0.94619924  0.53818841  0.86601082    -0.00070
C1667       C  0.93512871  0.51704651  0.82869103    -0.08640
C1668       C  0.96107502  0.52019277  0.79556800    -0.06020
C1669       C  0.99692893  0.54640366  0.79598528    -0.00080
C1670       C  0.00744492  0.56881149  0.83200112    -0.08550
C1671       C  0.54597004  0.59426323  0.83687476     0.61830
H1672       H  0.98952941  0.58188544  0.89368783     0.12520
H1673       H  0.95289472  0.50500288  0.76595467     0.12540
C1674       C  0.89692232  0.99144827  0.82088506     0.62060
F1675       F  0.55103271  0.60832535  0.87897613    -0.23100
F1676       F  0.56049883  0.62452399  0.79992160    -0.20430
F1677       F  0.56244091  0.57316708  0.83631550    -0.20110
F1678       F  0.87211847  0.99097079  0.85266258    -0.20160
F1679       F  0.89168357  0.95550422  0.82378010    -0.20480
F1680       F  0.89147052  0.00296608  0.77578808    -0.23160
C1681       C  0.00567727  0.94326764  0.16343071    -0.05990
C1682       C  0.51977476  0.92119881  0.14852910    -0.00070
C1683       C  0.49882738  0.88210974  0.17204098    -0.08640
C1684       C  0.96755495  0.86890412  0.20799896    -0.06020
C1685       C  0.95169995  0.89143621  0.21652316    -0.00080
C1686       C  0.97098823  0.92875691  0.18777007    -0.08550
C1687       C  0.95567585  0.95531514  0.18506055     0.61830
H1688       H  0.52144121  0.97364677  0.15406395     0.12520
H1689       H  0.95567651  0.84098547  0.22942584     0.12540
C1690       C  0.51083019  0.85521334  0.16114068     0.62060
F1691       F  0.97207786  0.98556413  0.14911664    -0.23100
F1692       F  0.96116014  0.97281792  0.22300005    -0.20430
F1693       F  0.91959066  0.93530982  0.18066430    -0.20110
F1694       F  0.54517442  0.86798030  0.17262526    -0.20160
F1695       F  0.51048974  0.85356473  0.11320244    -0.20480
F1696       F  0.48872185  0.81905732  0.18647969    -0.23160
C1697       C  0.92036601  0.52181831  0.46416023    -0.05990
C1698       C  0.88529090  0.99319888  0.48470580    -0.00070
C1699       C  0.87268699  0.00131418  0.52579226    -0.08640
C1700       C  0.89625170  0.53462945  0.54608487    -0.06020
C1701       C  0.93307712  0.55991044  0.52802486    -0.00080
C1702       C  0.94353562  0.55410310  0.48387311    -0.08550
C1703       C  0.97810753  0.58442786  0.45448997     0.61830
H1704       H  0.93022664  0.51953908  0.43059890     0.12520
H1705       H  0.88637317  0.53970989  0.57784115     0.12540
C1706       C  0.83471968  0.97475024  0.54827440     0.62060
F1707       F  0.97989326  0.57890828  0.40805055    -0.23100
F1708       F  0.50685749  0.58523664  0.47399561    -0.20430
F1709       F  0.98050502  0.61896883  0.45347622    -0.20110
F1710       F  0.82985261  0.93914146  0.56334879    -0.20160
F1711       F  0.81150460  0.97243078  0.51529230    -0.20480
F1712       F  0.82655604  0.98698574  0.58700078    -0.23160
C1713       C  0.69773174  0.76550071  0.31838779    -0.05990
C1714       C  0.69653142  0.73068753  0.32326863    -0.00070
C1715       C  0.72620845  0.72831754  0.33820098    -0.08640
C1716       C  0.75570671  0.76068473  0.34934125    -0.06020
C1717       C  0.75693396  0.79544042  0.34478957    -0.00080
C1718       C  0.72774356  0.79824962  0.32849540    -0.08550
C1719       C  0.72906880  0.83595214  0.31947652     0.61830
H1720       H  0.67524043  0.76696607  0.30554777     0.12520
H1721       H  0.77850081  0.75929406  0.36110186     0.12540
C1722       C  0.72748870  0.69223073  0.34014691     0.62060
F1723       F  0.69987371  0.83321121  0.29838361    -0.23100
F1724       F  0.75957995  0.86237429  0.28950464    -0.20430
F1725       F  0.72931423  0.84850870  0.36188034    -0.20110
F1726       F  0.72634443  0.68361395  0.29501208    -0.20160
F1727       F  0.69879197  0.66291985  0.37032470    -0.20480
F1728       F  0.75843535  0.69572374  0.35644965    -0.23160
C1729       C  0.51634006  0.47835590  0.28166025    -0.05990
C1730       C  0.53552865  0.47060751  0.31491179    -0.00070
C1731       C  0.51372958  0.94564927  0.35539521    -0.08640
C1732       C  0.98823970  0.95321409  0.37465386    -0.06020
C1733       C  0.98303117  0.98166937  0.34822337    -0.00080
C1734       C  0.99760079  0.99498456  0.29923653    -0.08550
C1735       C  0.00159499  0.03098779  0.27109434     0.61830
H1736       H  0.52759147  0.48656708  0.24473327     0.12520
H1737       H  0.97269057  0.93700453  0.40848464     0.12540
C1738       C  0.51695065  0.91214312  0.37568152     0.62060
F1739       F  0.01845014  0.55948198  0.29744416    -0.23100
F1740       F  0.96963555  0.02788770  0.26044777    -0.20430
F1741       F  0.02265570  0.04103659  0.22852631    -0.20110
F1742       F  0.52765243  0.41540386  0.42059842    -0.20160
F1743       F  0.54168809  0.40946706  0.34743439    -0.20480
F1744       F  0.48424730  0.87933430  0.37854264    -0.23160
C1745       C  0.85565489  0.80353001  0.57393061    -0.05990
C1746       C  0.89083757  0.81135811  0.56915064    -0.00070
C1747       C  0.90913916  0.82246366  0.52303070    -0.08640
C1748       C  0.89931509  0.84143662  0.48812002    -0.06020
C1749       C  0.86860723  0.84351617  0.49734230    -0.00080
C1750       C  0.84428984  0.82099458  0.53893216    -0.08550
C1751       C  0.80815907  0.81781768  0.54850265     0.61830
H1752       H  0.84046332  0.79106755  0.60877032     0.12520
H1753       H  0.91577795  0.85497020  0.45415207     0.12540
C1754       C  0.94066365  0.81781205  0.51110988     0.62060
F1755       F  0.79111570  0.79750279  0.59321091    -0.23100
F1756       F  0.78615950  0.79922486  0.51569856    -0.20430
F1757       F  0.81242713  0.85349721  0.54567876    -0.20110
F1758       F  0.94583163  0.79704256  0.54885165    -0.20160
F1759       F  0.97123866  0.85289816  0.49856800    -0.20480
F1760       F  0.93454678  0.79884289  0.47310453    -0.23160
C1761       C  0.83219704  0.92105726  0.20078029    -0.05990
C1762       C  0.85113358  0.94430650  0.23304791    -0.00070
C1763       C  0.85180822  0.97891698  0.23303704    -0.08640
C1764       C  0.84293101  0.99383232  0.19240120    -0.06020
C1765       C  0.83745485  0.97597321  0.15292313    -0.00080
C1766       C  0.82363719  0.93650568  0.16061926    -0.08550
C1767       C  0.80739953  0.91271238  0.12280556     0.61830
H1768       H  0.82787515  0.89263454  0.20384705     0.12520
H1769       H  0.84841868  0.02271972  0.18773975     0.12540
C1770       C  0.86217315  0.99999867  0.27448396     0.62060
F1771       F  0.77422392  0.88217215  0.14137754    -0.23100
F1772       F  0.82904230  0.89941892  0.10813859    -0.20430
F1773       F  0.80324845  0.93326496  0.08374855    -0.20110
F1774       F  0.89793627  0.01428233  0.27883112    -0.20160
F1775       F  0.84200692  0.97572594  0.31582826    -0.20480
F1776       F  0.85600042  0.02998179  0.26870925    -0.23160
loop_ 
_geom_bond_atom_site_label_1 
_geom_bond_atom_site_label_2 
_geom_bond_distance 
_geom_bond_site_symmetry_2 
_ccdc_geom_bond_type 
O1           Ni7   1.970       .  S
O1           C22   1.299       .  A
O2          Ni25   1.894       .  S
O2           C11   1.241       .  A
O3           Ni7   1.899       .  S
O3          Ni25   1.843       .  S
O3          Ni19   2.023       .  S
O3           H26   0.963       .  S
C4           O21   1.343       .  A
C4           O13   1.244       .  A
C4          C353   1.603       .  S
O5          Ni24   1.875       .  S
O5           C11   1.250       .  A
O6          Ni24   1.917       .  S
O6            C8   1.256       .  A
Ni7          O10   2.095       .  S
Ni7          O12   1.849       .  S
C8           O18   1.242       .  A
C8          C430   1.451       .  S
O9          Ni25   1.873       .  S
O9           C15   1.233       .  A
O10          C15   1.297       .  A
C11         C401   1.459       .  S
O12          C14   1.255       .  A
O13         Ni24   1.868       .  S
C14          O20   1.286       .  A
C14         C417   1.460       .  S
C15         C366   1.576       .  S
H16          O17   0.965       .  S
O17         Ni25   1.887       .  S
O17         Ni19   1.860       .  S
O17         Ni24   1.842       .  S
O18         Ni19   1.863       .  S
Ni19         O23   1.920       .  S
Ni19         O21   2.141       .  S
O20         Ni25   1.964       .  S
C22          O23   1.296       .  A
C22         C385   1.482       .  S
O27        Ni477   1.940       .  S
O27          C48   1.284   1_554  A
O28        Ni495   1.842       .  S
O28          C37   1.245       .  A
O29         Ni33   1.906       .  S
O29         Ni51   1.886       .  S
O29        Ni489   2.024   1_544  S
O29          H52   0.964   1_554  S
C30          O47   1.331       .  A
C30          O39   1.267       .  A
C30         C270   1.543       .  S
O31         Ni50   1.846   1_554  S
O31          C37   1.266       .  A
O32        Ni494   1.871   1_545  S
O32          C34   1.259       .  A
Ni33         O36   2.023       .  S
Ni33        O471   1.940       .  S
Ni33        O482   1.911       .  S
C34          O44   1.252       .  A
C34         C334   1.439       .  S
O35         Ni51   1.978       .  S
O35          C41   1.275       .  A
O36          C41   1.290       .  A
C37         C318   1.406       .  S
O38        Ni477   1.911       .  S
O38          C40   1.272       .  A
O39         Ni50   1.889       .  S
C40          O46   1.267       .  A
C40         C433   1.462       .  S
C41         C289   1.588       .  S
H42          O43   0.967       .  S
O43         Ni45   1.823   1_554  S
O43         Ni50   1.844   1_554  S
O43        Ni495   1.905       .  S
O44        Ni489   1.900   1_545  S
Ni45         O49   1.916       .  S
Ni45         O47   2.062       .  S
Ni45        O488   1.900       .  S
Ni45        O473   2.024   1_556  S
O46        Ni495   1.877       .  S
C48          O49   1.287       .  A
C48         C302   1.483       .  S
Ni50        O476   1.871       .  S
Ni51        O472   1.841   1_545  S
Ni51        O490   1.876   1_545  S
Ni51        O487   1.905   1_545  S
O53         Ni59   1.898       .  S
O53          C74   1.258       .  A
O54         Ni77   1.941       .  S
O54          C63   1.304       .  A
O55         Ni59   1.882       .  S
O55         Ni77   1.910       .  S
O55         Ni71   1.962       .  S
O55         H966   0.963       .  S
C56          O73   1.286       .  A
C56          O65   1.280       .  A
C56         C257   1.481       .  S
O57         Ni76   1.911   1_655  S
O57          C63   1.292   1_655  A
O58         Ni76   1.894   1_655  S
O58         C948   1.283       .  A
Ni59         O64   1.875       .  S
Ni59        O950   1.974       .  S
C60         O946   1.283       .  A
C60         O958   1.314       .  A
C60         C369   1.573       .  S
O61        Ni965   1.835       .  S
O61          C67   1.264       .  A
O62        Ni947   1.974       .  S
O62          C67   1.288       .  A
C63         C225   1.472   1_455  S
O64          C66   1.241       .  A
O65         Ni76   1.925       .  S
C66          O72   1.313       .  A
C66         C206   1.605       .  S
C67         C337   1.436       .  S
H68          O69   0.967       .  S
O69         Ni77   1.866       .  S
O69         Ni71   1.879       .  S
O69         Ni76   1.803       .  S
O70         Ni71   2.074   1_655  S
O70         C948   1.314       .  A
Ni71         O75   1.899       .  S
Ni71         O73   1.889       .  S
O72         Ni77   2.104       .  S
C74          O75   1.248       .  A
C74         C238   1.470       .  S
Ni77        O949   1.835       .  S
H78         O943   0.963       .  S
O79         Ni85   1.973       .  S
O79         C100   1.276       .  A
O80        Ni103   1.921       .  S
O80          C89   1.262       .  A
O81         Ni85   1.847       .  S
O81        Ni103   1.875       .  S
O81         Ni97   1.904       .  S
O81         H104   0.962       .  S
C82          O99   1.268       .  A
C82          O91   1.274       .  A
C82         C190   1.458       .  S
O83        Ni102   1.887       .  S
O83          C89   1.253       .  A
O84        Ni102   2.015       .  S
O84          C86   1.283       .  A
Ni85         O88   1.943       .  S
Ni85         O90   1.885       .  S
C86          O96   1.277       .  A
C86         C286   1.599       .  S
O87        Ni103   1.913       .  S
O87          C93   1.279       .  A
O88          C93   1.293       .  A
C89         C382   1.481       .  S
O90          C92   1.231       .  A
O91        Ni102   1.909       .  S
C92          O98   1.325       .  A
C92         C177   1.598       .  S
C93         C254   1.488       .  S
H94          O95   0.966       .  S
O95        Ni103   2.001       .  S
O95         Ni97   1.828       .  S
O95        Ni102   2.002       .  S
O96         Ni97   1.995       .  S
Ni97        O101   1.814       .  S
Ni97         O99   1.870       .  S
O98        Ni103   2.136       .  S
C100        O101   1.249       .  A
C100        C398   1.478   1_545  S
O105       Ni555   1.926       .  S
O105        C126   1.224   1_554  A
O106       Ni129   1.936       .  S
O106        C115   1.267   1_564  A
O107       Ni111   1.749   1_545  S
O107       Ni129   1.993   1_545  S
O107       Ni567   1.957   1_544  S
O107        H130   0.965       .  S
C108        O125   1.270       .  A
C108        O117   1.252       .  A
C108        C158   1.431       .  S
O109       Ni572   1.881   1_545  S
O109        C115   1.250       .  A
O110       Ni572   2.121   1_545  S
O110        C112   1.322       .  A
Ni111       O114   1.873   1_565  S
Ni111       O549   1.926       .  S
Ni111       O560   1.816       .  S
C112        O122   1.258       .  A
C112        C209   1.562       .  S
O113       Ni129   1.916       .  S
O113        C119   1.273   1_565  A
O114        C119   1.276       .  A
C115        C305   1.478       .  S
O116       Ni555   1.816       .  S
O116        C118   1.255       .  A
O117       Ni128   1.859       .  S
C118        O124   1.362       .  A
C118        C350   1.627       .  S
C119        C193   1.445       .  S
H120        O121   0.959       .  S
O121       Ni123   1.821       .  S
O121       Ni128   2.055       .  S
O121       Ni573   2.030   1_556  S
O122       Ni567   1.874   1_545  S
Ni123       O127   1.857       .  S
Ni123       O125   1.953       .  S
Ni123       O566   1.874       .  S
Ni123       O551   1.957   1_556  S
O124       Ni573   2.266       .  S
C126        O127   1.212       .  A
C126        C321   1.372       .  S
Ni128       O553   1.881       .  S
Ni128       O554   2.121       .  S
Ni129       O568   2.267       .  S
Ni129       O565   2.030   1_554  S
O131       Ni137   1.943       .  S
O131        C152   1.287       .  A
O132       Ni155   1.879       .  S
O132        C141   1.242       .  A
O133       Ni137   1.920       .  S
O133       Ni155   1.898       .  S
O133       Ni149   2.027       .  S
O133        H156   0.965       .  S
C134        O151   1.322       .  A
C134        O143   1.279   1_455  A
C134        C174   1.591       .  S
O135       Ni154   1.899       .  S
O135        C141   1.268       .  A
O136       Ni154   1.903       .  S
O136        C138   1.269       .  A
Ni137       O140   2.027       .  S
Ni137       O142   1.856       .  S
C138        O148   1.261       .  A
C138        C414   1.460       .  S
O139       Ni155   1.907       .  S
O139        C145   1.251       .  A
O140        C145   1.287       .  A
C141        C241   1.446       .  S
O142       C1032   1.261       .  A
O143      Ni1042   1.923       .  S
C144       O1030   1.261       .  A
C144       O1038   1.281       .  A
C144        C161   1.444   1_655  S
C145        C273   1.560       .  S
H146       O1035   0.956       .  S
O147       Ni155   1.914       .  S
O147       Ni149   1.833       .  S
O147       Ni154   1.866       .  S
O147       H1034   0.956       .  S
O148       Ni149   1.914       .  S
Ni149       O153   1.915       .  S
Ni149      O1039   2.073       .  S
O150       Ni155   1.941       .  S
O150       C1032   1.281       .  A
O151      Ni1037   2.073   1_455  S
C152        O153   1.283       .  A
C152        C222   1.483       .  S
Ni154      O1031   1.923       .  S
C157        C158   1.385       .  A
C157        C162   1.387       .  A
C157        H164   1.086       .  S
C158        C159   1.413       .  A
C159        C160   1.389       .  A
C159        C166   1.513       .  S
C160        C161   1.393       .  A
C160       H1053   1.084   1_455  S
C161        C162   1.410       .  A
C162        C163   1.495       .  S
C163        F167   1.384       .  S
C163        F168   1.374       .  S
C163        F169   1.376       .  S
H165       C1048   1.084       .  S
C166        F171   1.383       .  S
C166       F1058   1.377       .  S
C166       F1060   1.385       .  S
F170       C1054   1.377       .  S
F172       C1054   1.385       .  S
C173        C174   1.404       .  A
C173        C178   1.406       .  A
C173        H180   1.081   1_455  S
C174        C175   1.444       .  A
C175        C620   1.481       .  A
C175        C182   1.511       .  S
C176        C177   1.441   1_565  A
C176        C619   1.481       .  A
C176        H181   1.081   1_565  S
C177        C622   1.461   1_545  A
C178        C621   1.461       .  A
C178        C623   1.541       .  S
C179        C622   1.541   1_545  S
C179        F184   1.360       .  S
C179        F185   1.360       .  S
C179       F1515   1.387   1_445  S
C182        F186   1.383       .  S
C182        F187   1.380       .  S
C182        F188   1.384       .  S
F183       C1511   1.387       .  S
C189        C190   1.396       .  A
C189        C194   1.388       .  A
C189        H196   1.084       .  S
C190        C191   1.416       .  A
C191        C192   1.393       .  A
C191        C198   1.514       .  S
C192        C193   1.395       .  A
C192        H197   1.085   1_545  S
C193        C194   1.411       .  A
C194        C195   1.510       .  S
C195        F199   1.383       .  S
C195        F200   1.383       .  S
C195        F201   1.380       .  S
C198        F202   1.384   1_545  S
C198        F203   1.385       .  S
C198        F204   1.383       .  S
C205        C206   1.423       .  A
C205        C210   1.458       .  A
C205        H212   1.080       .  S
C206        C207   1.461       .  A
C207        C208   1.428       .  A
C207        C214   1.504       .  S
C208        C209   1.387       .  A
C208        H213   1.082       .  S
C209        C210   1.442       .  A
C210        C211   1.515       .  S
C211        F215   1.384       .  S
C211        F216   1.383       .  S
C211        F217   1.382       .  S
C214        F218   1.383       .  S
C214        F219   1.372       .  S
C214        F220   1.387       .  S
C221        C222   1.401       .  A
C221        C226   1.402       .  A
C221        H228   1.085       .  S
C222       C1111   1.423       .  A
C223        C224   1.412       .  A
C223       C1110   1.423   1_455  A
C223        C230   1.520       .  S
C224        C225   1.401   1_455  A
C224        H229   1.083       .  S
C225       C1114   1.418       .  A
C226       C1113   1.418       .  A
C226        C227   1.518       .  S
C227        F231   1.384       .  S
C227        F232   1.383       .  S
C227        F233   1.383       .  S
C230        F234   1.384       .  S
C230        F235   1.382       .  S
C230        F236   1.385       .  S
C237       C1126   1.404       .  A
C237        C686   1.399   1_545  A
C237        H244   1.073       .  S
C238       C1125   1.404   1_455  A
C238        C683   1.390       .  A
C239        C682   1.390       .  A
C239       C1128   1.397       .  A
C239        C690   1.515       .  S
C240        C241   1.407       .  A
C240       C1127   1.397       .  A
C240       H1133   1.079       .  S
C241        C242   1.390       .  A
C242        C681   1.399       .  A
C242        C243   1.511       .  S
C243        F248   1.384       .  S
C243        F249   1.377       .  S
C243        F691   1.374       .  S
H245       C1128   1.079       .  S
C246        C683   1.515   1_565  S
C246        F250   1.362   1_565  S
C246        F251   1.375   1_565  S
C246        F696   1.365       .  S
F247        C687   1.374   1_545  S
F252        C690   1.365       .  S
C253        C254   1.415       .  A
C253        C258   1.406       .  A
C253        H260   1.083       .  S
C254        C255   1.443       .  A
C255        C256   1.417       .  A
C255        C262   1.523       .  S
C256        C257   1.400       .  A
C256        H261   1.082       .  S
C257        C258   1.398       .  A
C258        C259   1.506       .  S
C259        F264   1.385       .  S
C259        F265   1.380   1_455  S
C259       F1151   1.383       .  S
C262        F266   1.377       .  S
C262        F267   1.384       .  S
C262        F268   1.385       .  S
F263       C1147   1.383       .  S
C269        C270   1.427       .  A
C269        C274   1.435       .  A
C269        H276   1.083       .  S
C270        C271   1.423       .  A
C271        C272   1.438       .  A
C271        C278   1.513       .  S
C272        C273   1.428       .  A
C272        H277   1.084       .  S
C273        C274   1.424       .  A
C274        C275   1.515       .  S
C275        F279   1.384       .  S
C275        F280   1.382       .  S
C275        F281   1.383       .  S
C278        F282   1.382       .  S
C278        F283   1.382       .  S
C278        F284   1.383       .  S
C285        C286   1.428       .  A
C285        C290   1.457       .  A
C285        H292   1.082       .  S
C286        C287   1.444       .  A
C287       C1176   1.454   1_455  A
C287       C1182   1.516       .  S
C288        C289   1.419       .  A
C288       C1175   1.454       .  A
C288        H293   1.082       .  S
C289       C1178   1.430       .  A
C290       C1177   1.430       .  A
C290        C291   1.513       .  S
C291        F295   1.384       .  S
C291        F296   1.383       .  S
C291        F297   1.382       .  S
C294       C1175   1.516       .  S
C294        F298   1.383       .  S
C294        F300   1.384       .  S
C294       F1187   1.375       .  S
F299       C1182   1.375       .  S
C301        C302   1.402       .  A
C301        C306   1.409       .  A
C301        H308   1.083       .  S
C302        C303   1.425   1_556  A
C303        C748   1.399       .  A
C303        C310   1.519       .  S
C304        C305   1.397   1_554  A
C304        C747   1.399       .  A
C304        H309   1.083       .  S
C305        C750   1.421       .  A
C306        C749   1.421       .  A
C306        C307   1.519       .  S
C307        F313   1.383       .  S
C307        F755   1.385       .  S
C307        F756   1.383       .  S
C310        F315   1.377       .  S
C310        F316   1.385       .  S
C310        F758   1.382       .  S
F311        C751   1.385       .  S
F312        C751   1.383       .  S
F314        C754   1.382       .  S
C317        C762   1.405       .  A
C317       C1210   1.376       .  A
C317        H324   1.076   1_565  S
C318        C319   1.397       .  A
C318        C761   1.405       .  A
C319       C1208   1.389       .  A
C319        C326   1.511       .  S
C320        C321   1.404   1_654  A
C320       C1207   1.389       .  A
C320        H325   1.083   1_554  S
C321        C766   1.408   1_556  A
C322       C1205   1.376       .  A
C322        C765   1.408   1_554  A
C322        C323   1.532   1_565  S
C323        F327   1.382   1_554  S
C323        F328   1.374   1_554  S
C323        F773   1.379       .  S
C326        F331   1.383       .  S
C326        F332   1.380       .  S
C326        F774   1.384       .  S
F329        C767   1.379       .  S
F330        C770   1.384       .  S
C333        C334   1.387       .  A
C333        C338   1.384       .  A
C333        H340   1.085       .  S
C334        C335   1.417       .  A
C335        C336   1.391       .  A
C335        C786   1.506   1_545  S
C336        C337   1.389       .  A
C336        H341   1.087       .  S
C337        C338   1.414       .  A
C338       C1227   1.495       .  S
C339       C1226   1.495       .  S
C339        F343   1.386       .  S
C339        F344   1.376       .  S
C339        F345   1.379       .  S
C342        C779   1.506       .  S
C342        F346   1.378       .  S
C342        F347   1.378       .  S
C342        F348   1.384       .  S
C349        C354   1.426       .  A
C349       C1238   1.427       .  A
C349       H1244   1.078       .  S
C350        C351   1.447   1_455  A
C350       C1237   1.427       .  A
C351       C1240   1.491       .  A
C351        C358   1.506   1_655  S
C352        C353   1.447       .  A
C352       C1239   1.490       .  A
C352        H357   1.081       .  S
C353        C354   1.443       .  A
C354        C355   1.538       .  S
C355        F359   1.359       .  S
C355        F360   1.349       .  S
C355        F361   1.383       .  S
H356       C1237   1.078       .  S
C358        F362   1.383       .  S
C358        F363   1.383       .  S
C358        F364   1.384   1_455  S
C365        C370   1.422       .  A
C365        C810   1.424   1_545  A
C365        H372   1.073       .  S
C366        C367   1.429       .  A
C366        C809   1.424       .  A
C367        C812   1.461       .  A
C367        C374   1.509       .  S
C368        C369   1.434       .  A
C368        C811   1.461       .  A
C368        H373   1.082       .  S
C369        C370   1.419       .  A
C370        C371   1.514       .  S
C371        F375   1.385       .  S
C371        F377   1.376       .  S
C371       F1264   1.374       .  S
C374        F378   1.383       .  S
C374        F379   1.383       .  S
C374        F380   1.384       .  S
F376       C1259   1.374   1_455  S
C381        C382   1.402       .  A
C381        C386   1.412       .  A
C381        H388   1.083       .  S
C382        C383   1.418       .  A
C383        C384   1.405       .  A
C383        C390   1.515       .  S
C384        C385   1.400       .  A
C384        H389   1.083       .  S
C385        C386   1.420       .  A
C386        C387   1.518       .  S
C387        F391   1.385       .  S
C387        F392   1.384       .  S
C387        F393   1.382       .  S
C390        F394   1.382       .  S
C390        F395   1.382       .  S
C390        F396   1.385       .  S
C397        C398   1.394       .  A
C397       C1734   1.414   1_455  A
C397        H404   1.083       .  S
C398        C843   1.395       .  A
C399        C842   1.395       .  A
C399       C1288   1.407   1_455  A
C399        C406   1.503       .  S
C400        C401   1.430       .  A
C400       C1287   1.407       .  A
C400        H405   1.083       .  S
C401        C402   1.433       .  A
C402       C1729   1.414       .  A
C402        C403   1.519       .  S
C403        F408   1.379       .  S
C403        F409   1.380       .  S
C403        F851   1.379       .  S
C406        F412   1.383   1_455  S
C406        F854   1.377       .  S
C406        F855   1.385       .  S
F407        C847   1.378       .  S
F410        C850   1.377       .  S
F411        C850   1.385       .  S
C413        C414   1.395       .  A
C413        C418   1.401       .  A
C413        H420   1.083       .  S
C414        C415   1.410       .  A
C415        C416   1.396       .  A
C415        C422   1.510       .  S
C416        C417   1.399       .  A
C416        H421   1.085       .  S
C417        C418   1.427       .  A
C418        C419   1.522       .  S
C419        F423   1.384       .  S
C419        F424   1.383       .  S
C419        F425   1.383       .  S
C422        F426   1.383       .  S
C422        F427   1.381       .  S
C422        F428   1.383       .  S
C429        C430   1.400       .  A
C429        C434   1.391       .  A
C429        H436   1.085       .  S
C430        C431   1.418       .  A
C431        C432   1.399       .  A
C431        C438   1.516       .  S
C432        C433   1.396       .  A
C432        H437   1.083       .  S
C433        C434   1.411       .  A
C434        C435   1.513       .  S
C435        F439   1.382       .  S
C435        F440   1.384       .  S
C435        F441   1.384       .  S
C438        F442   1.379       .  S
C438        F443   1.381       .  S
C438        F444   1.385       .  S
O445       Ni451   1.970       .  S
O445        C466   1.299       .  A
O446       Ni469   1.893       .  S
O446        C455   1.241       .  A
O447       Ni451   1.899       .  S
O447       Ni469   1.843       .  S
O447       Ni463   2.023       .  S
O447        H470   0.963       .  S
C448        O465   1.343       .  A
C448        O457   1.244       .  A
C448        C797   1.604       .  S
O449       Ni468   1.875       .  S
O449        C455   1.250       .  A
O450       Ni468   1.917       .  S
O450        C452   1.256       .  A
Ni451       O454   2.095       .  S
Ni451       O456   1.848       .  S
C452        O462   1.242       .  A
C452        C874   1.451       .  S
O453       Ni469   1.873       .  S
O453        C459   1.233       .  A
O454        C459   1.297       .  A
C455        C845   1.459       .  S
O456        C458   1.255       .  A
O457       Ni468   1.868       .  S
C458        O464   1.286       .  A
C458        C861   1.460       .  S
C459        C810   1.576       .  S
H460        O461   0.965       .  S
O461       Ni469   1.887       .  S
O461       Ni463   1.860       .  S
O461       Ni468   1.841       .  S
O462       Ni463   1.863       .  S
Ni463       O467   1.920       .  S
Ni463       O465   2.141       .  S
O464       Ni469   1.964       .  S
C466        O467   1.296       .  A
C466        C829   1.482       .  S
O471        C492   1.284   1_554  A
O472        C481   1.244       .  A
O473       Ni477   1.906       .  S
O473       Ni495   1.886       .  S
O473        H496   0.963   1_554  S
C474        O491   1.331       .  A
C474        O483   1.267       .  A
C474        C714   1.543       .  S
O475       Ni494   1.846   1_554  S
O475        C481   1.266       .  A
O476        C478   1.259       .  A
Ni477       O480   2.023       .  S
C478        O488   1.252       .  A
C478        C778   1.439       .  S
O479       Ni495   1.979       .  S
O479        C485   1.275       .  A
O480        C485   1.290       .  A
C481        C762   1.406       .  S
O482        C484   1.273   1_545  A
O483       Ni494   1.889       .  S
C484        O490   1.267       .  A
C484        C877   1.462       .  S
C485        C733   1.588       .  S
H486        O487   0.967       .  S
O487       Ni489   1.823   1_554  S
O487       Ni494   1.843   1_554  S
Ni489       O493   1.916   1_565  S
Ni489       O491   2.062       .  S
C492        O493   1.287       .  A
C492        C746   1.483       .  S
O497       Ni503   1.898       .  S
O497        C518   1.258       .  A
O498       Ni521   1.941       .  S
O498        C507   1.304       .  A
O499       Ni503   1.882       .  S
O499       Ni521   1.910       .  S
O499       Ni515   1.961       .  S
O499       H1410   0.963       .  S
C500        O517   1.286       .  A
C500        O509   1.280       .  A
C500        C701   1.481       .  S
O501       Ni520   1.911   1_655  S
O501        C507   1.292   1_655  A
O502       Ni520   1.893   1_655  S
O502       C1392   1.283       .  A
Ni503      O1394   1.974       .  S
Ni503       O508   1.875       .  S
C504       O1390   1.283       .  A
C504       O1402   1.315       .  A
C504        C813   1.573       .  S
O505      Ni1409   1.835       .  S
O505        C511   1.264       .  A
O506      Ni1391   1.974       .  S
O506        C511   1.288       .  A
C507        C669   1.472   1_455  S
O508        C510   1.241       .  A
O509       Ni520   1.925       .  S
C510        O516   1.313       .  A
C510        C650   1.604       .  S
C511        C781   1.436       .  S
H512        O513   0.967       .  S
O513       Ni521   1.866       .  S
O513       Ni515   1.879       .  S
O513       Ni520   1.803       .  S
O514       Ni515   2.074   1_655  S
O514       C1392   1.315       .  A
Ni515       O519   1.899       .  S
Ni515       O517   1.889       .  S
O516       Ni521   2.104       .  S
C518        O519   1.248       .  A
C518        C682   1.470       .  S
Ni521      O1393   1.835       .  S
H522       O1387   0.963       .  S
O523       Ni529   1.973       .  S
O523        C544   1.276       .  A
O524       Ni547   1.921       .  S
O524        C533   1.263       .  A
O525       Ni529   1.847       .  S
O525       Ni547   1.875       .  S
O525       Ni541   1.905       .  S
O525        H548   0.962       .  S
C526        O543   1.268       .  A
C526        O535   1.274       .  A
C526        C634   1.458       .  S
O527       Ni546   1.887       .  S
O527        C533   1.253       .  A
O528       Ni546   2.015       .  S
O528        C530   1.283       .  A
Ni529       O532   1.944       .  S
Ni529       O534   1.885       .  S
C530        O540   1.277       .  A
C530        C730   1.599       .  S
O531       Ni547   1.913       .  S
O531        C537   1.279       .  A
O532        C537   1.293       .  A
C533        C826   1.481       .  S
O534        C536   1.231       .  A
O535       Ni546   1.909       .  S
C536        O542   1.325       .  A
C536        C621   1.599       .  S
C537        C698   1.488       .  S
H538        O539   0.966       .  S
O539       Ni547   2.001       .  S
O539       Ni541   1.828       .  S
O539       Ni546   2.002       .  S
O540       Ni541   1.996       .  S
Ni541       O545   1.814       .  S
Ni541       O543   1.870       .  S
O542       Ni547   2.136       .  S
C544        O545   1.249       .  A
C544        C842   1.478       .  S
O549        C570   1.224   1_554  A
O550       Ni573   1.936       .  S
O550        C559   1.267   1_554  A
O551       Ni555   1.749       .  S
O551       Ni573   1.993       .  S
O551        H574   0.965       .  S
C552        O569   1.270       .  A
C552        O561   1.252       .  A
C552        C602   1.431       .  S
O553        C559   1.250       .  A
O554        C556   1.322       .  A
Ni555       O558   1.873       .  S
C556        O566   1.258       .  A
C556        C653   1.562       .  S
O557       Ni573   1.915       .  S
O557        C563   1.273       .  A
O558        C563   1.276       .  A
C559        C749   1.478       .  S
O560        C562   1.255       .  A
O561       Ni572   1.859       .  S
C562        O568   1.362       .  A
C562        C794   1.627       .  S
C563        C637   1.445       .  S
H564        O565   0.960       .  S
O565       Ni567   1.821       .  S
O565       Ni572   2.055       .  S
Ni567       O571   1.857       .  S
Ni567       O569   1.953       .  S
C570        O571   1.212       .  A
C570        C765   1.371       .  S
O575       Ni581   1.943       .  S
O575        C596   1.287       .  A
O576       Ni599   1.879       .  S
O576        C585   1.242       .  A
O577       Ni581   1.920       .  S
O577       Ni599   1.897       .  S
O577       Ni593   2.027       .  S
O577        H600   0.965       .  S
C578        O595   1.322       .  A
C578        O587   1.279   1_455  A
C578        C618   1.591       .  S
O579       Ni598   1.899       .  S
O579        C585   1.268       .  A
O580       Ni598   1.903       .  S
O580        C582   1.269       .  A
Ni581       O584   2.027       .  S
Ni581       O586   1.856       .  S
C582        O592   1.261       .  A
C582        C858   1.460       .  S
O583       Ni599   1.907       .  S
O583        C589   1.250       .  A
O584        C589   1.287       .  A
C585        C685   1.446       .  S
O586       C1476   1.261       .  A
O587      Ni1486   1.923       .  S
C588       O1474   1.261       .  A
C588       O1482   1.281       .  A
C588        C605   1.444   1_655  S
C589        C717   1.560       .  S
H590       O1479   0.950       .  S
O591       Ni599   1.914       .  S
O591       Ni593   1.833       .  S
O591       Ni598   1.867       .  S
O591       H1478   0.950       .  S
O592       Ni593   1.913       .  S
Ni593       O597   1.915       .  S
Ni593      O1483   2.073       .  S
O594       Ni599   1.942       .  S
O594       C1476   1.281       .  A
O595      Ni1481   2.074   1_455  S
C596        O597   1.283       .  A
C596        C666   1.483       .  S
Ni598      O1475   1.923       .  S
C601        C602   1.385       .  A
C601        C606   1.387       .  A
C601        H608   1.086       .  S
C602        C603   1.413       .  A
C603        C604   1.389       .  A
C603        C610   1.513       .  S
C604        C605   1.394       .  A
C604       H1497   1.084   1_455  S
C605        C606   1.410       .  A
C606        C607   1.495       .  S
C607        F611   1.384       .  S
C607        F612   1.374       .  S
C607        F613   1.376       .  S
H609       C1492   1.084       .  S
C610       F1502   1.377       .  S
C610        F615   1.383       .  S
C610       F1504   1.385       .  S
F614       C1498   1.377       .  S
F616       C1498   1.385       .  S
C617        C618   1.404       .  A
C617        C622   1.406       .  A
C617        H624   1.081   1_455  S
C618        C619   1.444       .  A
C619        C626   1.511       .  S
C620        C621   1.441       .  A
C620        H625   1.081       .  S
C623       F1071   1.387   1_455  S
C623        F628   1.359       .  S
C623        F629   1.359       .  S
C626        F630   1.383       .  S
C626        F631   1.380       .  S
C626        F632   1.384       .  S
F627       C1067   1.387   1_565  S
C633        C634   1.396       .  A
C633        C638   1.388       .  A
C633        H640   1.084       .  S
C634        C635   1.416       .  A
C635        C636   1.393       .  A
C635        C642   1.514       .  S
C636        C637   1.395       .  A
C636        H641   1.085       .  S
C637        C638   1.411       .  A
C638        C639   1.510       .  S
C639        F643   1.383       .  S
C639        F644   1.383       .  S
C639        F645   1.380       .  S
C642        F646   1.384       .  S
C642        F647   1.385       .  S
C642        F648   1.383       .  S
C649        C650   1.423       .  A
C649        C654   1.458       .  A
C649        H656   1.080       .  S
C650        C651   1.461       .  A
C651        C652   1.428       .  A
C651        C658   1.504       .  S
C652        C653   1.387       .  A
C652        H657   1.082       .  S
C653        C654   1.442       .  A
C654        C655   1.515       .  S
C655        F659   1.384       .  S
C655        F660   1.383       .  S
C655        F661   1.382       .  S
C658        F662   1.383       .  S
C658        F663   1.372       .  S
C658        F664   1.387       .  S
C665        C666   1.401       .  A
C665        C670   1.402       .  A
C665        H672   1.085       .  S
C666       C1555   1.423       .  A
C667       C1554   1.423   1_455  A
C667        C668   1.412       .  A
C667        C674   1.520       .  S
C668        C669   1.401   1_455  A
C668        H673   1.083       .  S
C669       C1558   1.418       .  A
C670       C1557   1.418       .  A
C670        C671   1.518       .  S
C671        F675   1.384       .  S
C671        F676   1.383       .  S
C671        F677   1.383       .  S
C674        F678   1.384       .  S
C674        F679   1.382       .  S
C674        F680   1.385       .  S
C681       C1570   1.404       .  A
C681        H688   1.073       .  S
C682       C1569   1.404   1_455  A
C683       C1572   1.397   1_545  A
C684       C1571   1.397   1_565  A
C684        C685   1.407       .  A
C684       H1577   1.079       .  S
C685        C686   1.390       .  A
C686        C687   1.511       .  S
C687        F692   1.384       .  S
C687        F693   1.377       .  S
H689       C1572   1.079       .  S
C690        F694   1.362       .  S
C690        F695   1.375       .  S
C697        C698   1.415       .  A
C697        C702   1.406       .  A
C697        H704   1.083       .  S
C698        C699   1.443       .  A
C699        C700   1.417       .  A
C699        C706   1.523       .  S
C700        C701   1.400       .  A
C700        H705   1.082       .  S
C701        C702   1.399       .  A
C702        C703   1.506       .  S
C703       F1595   1.383       .  S
C703        F708   1.385       .  S
C703        F709   1.380   1_455  S
C706        F710   1.377       .  S
C706        F711   1.384       .  S
C706        F712   1.385       .  S
F707       C1591   1.383       .  S
C713        C714   1.427       .  A
C713        C718   1.435       .  A
C713        H720   1.083       .  S
C714        C715   1.423       .  A
C715        C716   1.438       .  A
C715        C722   1.513       .  S
C716        C717   1.428       .  A
C716        H721   1.084       .  S
C717        C718   1.424       .  A
C718        C719   1.515       .  S
C719        F723   1.384       .  S
C719        F724   1.382       .  S
C719        F725   1.383       .  S
C722        F726   1.382       .  S
C722        F727   1.382       .  S
C722        F728   1.383       .  S
C729        C730   1.428       .  A
C729        C734   1.457       .  A
C729        H736   1.082       .  S
C730        C731   1.444       .  A
C731       C1620   1.454   1_455  A
C731       C1626   1.516       .  S
C732       C1619   1.454       .  A
C732        C733   1.419       .  A
C732        H737   1.083       .  S
C733       C1622   1.430       .  A
C734       C1621   1.430       .  A
C734        C735   1.513       .  S
C735        F739   1.384       .  S
C735        F740   1.383       .  S
C735        F741   1.382       .  S
C738       C1619   1.516       .  S
C738        F742   1.383       .  S
C738       F1631   1.375       .  S
C738        F744   1.384       .  S
F743       C1626   1.376       .  S
C745        C746   1.402       .  A
C745        C750   1.409       .  A
C745        H752   1.083       .  S
C746        C747   1.425   1_556  A
C747        C754   1.519       .  S
C748        C749   1.397   1_554  A
C748        H753   1.083       .  S
C750        C751   1.519       .  S
C751        F757   1.383   1_545  S
C754        F759   1.377   1_545  S
C754        F760   1.385       .  S
C761       C1654   1.376       .  A
C761        H768   1.076       .  S
C762        C763   1.397       .  A
C763       C1652   1.389       .  A
C763        C770   1.511       .  S
C764       C1651   1.389       .  A
C764        C765   1.404   1_654  A
C764        H769   1.083   1_554  S
C766       C1649   1.376       .  A
C766        C767   1.532       .  S
C767        F771   1.382   1_554  S
C767        F772   1.374   1_554  S
C770        F775   1.383       .  S
C770        F776   1.380       .  S
C777        C778   1.387       .  A
C777        C782   1.384       .  A
C777        H784   1.085       .  S
C778        C779   1.417       .  A
C779        C780   1.391       .  A
C780        C781   1.389       .  A
C780        H785   1.087       .  S
C781        C782   1.414       .  A
C782       C1671   1.495       .  S
C783       C1670   1.495       .  S
C783        F787   1.386       .  S
C783        F788   1.376       .  S
C783        F789   1.379       .  S
C786        F790   1.378       .  S
C786        F791   1.378       .  S
C786        F792   1.384   1_565  S
C793       C1682   1.426       .  A
C793        C798   1.426       .  A
C793       H1688   1.077       .  S
C794       C1681   1.427       .  A
C794        C795   1.447   1_455  A
C795       C1684   1.491       .  A
C795        C802   1.506   1_655  S
C796       C1683   1.491       .  A
C796        C797   1.447       .  A
C796        H801   1.081       .  S
C797        C798   1.443       .  A
C798        C799   1.538       .  S
C799        F803   1.359       .  S
C799        F804   1.348       .  S
C799        F805   1.383       .  S
H800       C1681   1.077       .  S
C802        F806   1.383       .  S
C802        F807   1.383       .  S
C802        F808   1.384   1_455  S
C809        C814   1.422       .  A
C809        H816   1.073       .  S
C810        C811   1.429   1_565  A
C811        C818   1.509   1_545  S
C812        C813   1.434       .  A
C812        H817   1.082       .  S
C813        C814   1.419       .  A
C814        C815   1.514       .  S
C815        F819   1.385       .  S
C815       F1708   1.374       .  S
C815        F821   1.376       .  S
C818        F822   1.383       .  S
C818        F823   1.383       .  S
C818        F824   1.384       .  S
F820       C1703   1.374   1_455  S
C825        C826   1.402       .  A
C825        C830   1.412       .  A
C825        H832   1.083       .  S
C826        C827   1.418       .  A
C827        C828   1.405       .  A
C827        C834   1.515       .  S
C828        C829   1.400       .  A
C828        H833   1.083       .  S
C829        C830   1.420       .  A
C830        C831   1.518       .  S
C831        F835   1.385       .  S
C831        F836   1.384       .  S
C831        F837   1.382       .  S
C834        F838   1.382       .  S
C834        F839   1.382       .  S
C834        F840   1.385       .  S
C841        C842   1.394       .  A
C841       C1290   1.414   1_455  A
C841        H848   1.083       .  S
C843       C1732   1.407   1_455  A
C843        C850   1.503       .  S
C844       C1731   1.407       .  A
C844        C845   1.430       .  A
C844        H849   1.083       .  S
C845        C846   1.433       .  A
C846       C1285   1.414       .  A
C846        C847   1.518   1_565  S
C847        F852   1.379       .  S
C847        F853   1.380       .  S
C850        F856   1.383   1_455  S
C857        C858   1.395       .  A
C857        C862   1.401       .  A
C857        H864   1.083       .  S
C858        C859   1.410       .  A
C859        C860   1.396       .  A
C859        C866   1.510       .  S
C860        C861   1.399       .  A
C860        H865   1.085       .  S
C861        C862   1.427       .  A
C862        C863   1.522       .  S
C863        F867   1.384       .  S
C863        F868   1.383       .  S
C863        F869   1.383       .  S
C866        F870   1.383       .  S
C866        F871   1.381       .  S
C866        F872   1.383       .  S
C873        C874   1.400       .  A
C873        C878   1.391       .  A
C873        H880   1.085       .  S
C874        C875   1.418       .  A
C875        C876   1.399       .  A
C875        C882   1.516   1_565  S
C876        C877   1.396       .  A
C876        H881   1.083   1_565  S
C877        C878   1.412       .  A
C878        C879   1.513       .  S
C879        F883   1.382       .  S
C879        F884   1.384       .  S
C879        F885   1.384       .  S
C882        F886   1.379       .  S
C882        F887   1.381   1_545  S
C882        F888   1.385       .  S
O889       Ni895   1.970       .  S
O889        C910   1.299       .  A
O890       Ni913   1.894       .  S
O890        C899   1.241       .  A
O891       Ni895   1.899       .  S
O891       Ni913   1.843       .  S
O891       Ni907   2.023       .  S
O891        H914   0.963       .  S
C892        O909   1.343       .  A
C892        O901   1.244       .  A
C892       C1241   1.603       .  S
O893       Ni912   1.875       .  S
O893        C899   1.250       .  A
O894       Ni912   1.917       .  S
O894        C896   1.256       .  A
Ni895       O898   2.095       .  S
Ni895       O900   1.848       .  S
C896        O906   1.242       .  A
C896       C1318   1.451       .  S
O897       Ni913   1.873       .  S
O897        C903   1.233       .  A
O898        C903   1.297       .  A
C899       C1289   1.459       .  S
O900        C902   1.255       .  A
O901       Ni912   1.868       .  S
C902        O908   1.286       .  A
C902       C1305   1.460       .  S
C903       C1254   1.576       .  S
H904        O905   0.965       .  S
O905       Ni913   1.887       .  S
O905       Ni907   1.860       .  S
O905       Ni912   1.842       .  S
O906       Ni907   1.863       .  S
Ni907       O911   1.920       .  S
Ni907       O909   2.141       .  S
O908       Ni913   1.964       .  S
C910        O911   1.296       .  A
C910       C1273   1.482       .  S
O915      Ni1365   1.940       .  S
O915        C936   1.284   1_554  A
O916      Ni1383   1.842       .  S
O916        C925   1.245       .  A
O917       Ni921   1.907       .  S
O917       Ni939   1.887       .  S
O917      Ni1377   2.025   1_544  S
O917        H940   0.963   1_554  S
C918        O935   1.331       .  A
C918        O927   1.267       .  A
C918       C1158   1.543       .  S
O919       Ni938   1.846   1_554  S
O919        C925   1.266       .  A
O920      Ni1382   1.872   1_545  S
O920        C922   1.259       .  A
Ni921      O1359   1.940       .  S
Ni921       O924   2.023       .  S
Ni921      O1370   1.911       .  S
C922        O932   1.253       .  A
C922       C1222   1.439       .  S
O923       Ni939   1.978       .  S
O923        C929   1.275       .  A
O924        C929   1.290       .  A
C925       C1206   1.406       .  S
O926      Ni1365   1.911       .  S
O926        C928   1.272       .  A
O927       Ni938   1.889       .  S
C928        O934   1.267       .  A
C928       C1321   1.462       .  S
C929       C1177   1.588   1_655  S
H930        O931   0.967       .  S
O931      Ni1383   1.905       .  S
O931       Ni933   1.823   1_554  S
O931       Ni938   1.844   1_554  S
O932      Ni1377   1.900   1_545  S
Ni933      O1376   1.900       .  S
Ni933       O937   1.916       .  S
Ni933       O935   2.062       .  S
Ni933      O1361   2.024   1_556  S
O934      Ni1383   1.877       .  S
C936        O937   1.287       .  A
C936       C1190   1.483       .  S
Ni938      O1364   1.871       .  S
Ni939      O1360   1.841   1_545  S
Ni939      O1378   1.877   1_545  S
Ni939      O1375   1.905   1_545  S
O941       Ni947   1.898       .  S
O941        C962   1.258       .  A
O942       Ni965   1.941       .  S
O942        C951   1.304       .  A
O943       Ni947   1.882       .  S
O943       Ni965   1.910       .  S
O943       Ni959   1.962       .  S
C944        O961   1.286       .  A
C944        O953   1.280       .  A
C944       C1145   1.481       .  S
O945       Ni964   1.911       .  S
O945        C951   1.292       .  A
O946       Ni964   1.894       .  S
Ni947       O952   1.875       .  S
C948       C1257   1.573       .  S
O949        C955   1.264       .  A
O950        C955   1.288       .  A
C951       C1113   1.472       .  S
O952        C954   1.241       .  A
O953       Ni964   1.925       .  S
C954        O960   1.313       .  A
C954       C1094   1.605       .  S
C955       C1225   1.436   1_455  S
H956        O957   0.967       .  S
O957       Ni965   1.866       .  S
O957       Ni959   1.879       .  S
O957       Ni964   1.803       .  S
O958       Ni959   2.074       .  S
Ni959       O963   1.899       .  S
Ni959       O961   1.889       .  S
O960       Ni965   2.104       .  S
C962        O963   1.248       .  A
C962       C1126   1.470       .  S
O967       Ni973   1.973       .  S
O967        C988   1.276       .  A
O968       Ni991   1.921       .  S
O968        C977   1.263       .  A
O969       Ni973   1.847       .  S
O969       Ni991   1.875       .  S
O969       Ni985   1.904       .  S
O969        H992   0.962       .  S
C970        O987   1.268       .  A
C970        O979   1.274       .  A
C970       C1078   1.458       .  S
O971       Ni990   1.887       .  S
O971        C977   1.253       .  A
O972       Ni990   2.015       .  S
O972        C974   1.283       .  A
Ni973       O976   1.943       .  S
Ni973       O978   1.885       .  S
C974        O984   1.277       .  A
C974       C1174   1.599       .  S
O975       Ni991   1.913       .  S
O975        C981   1.279       .  A
O976        C981   1.293       .  A
C977       C1270   1.481       .  S
O978        C980   1.231       .  A
O979       Ni990   1.909       .  S
C980        O986   1.325       .  A
C980       C1065   1.598       .  S
C981       C1142   1.488       .  S
H982        O983   0.966       .  S
O983       Ni991   2.001       .  S
O983       Ni985   1.828       .  S
O983       Ni990   2.002       .  S
O984       Ni985   1.995       .  S
Ni985       O989   1.814       .  S
Ni985       O987   1.870       .  S
O986       Ni991   2.136       .  S
C988        O989   1.249       .  A
C988       C1286   1.478   1_545  S
O993      Ni1443   1.926       .  S
O993       C1014   1.224   1_554  A
O994      Ni1017   1.936       .  S
O994       C1003   1.267   1_564  A
O995       Ni999   1.749   1_545  S
O995      Ni1017   1.993   1_545  S
O995      Ni1455   1.956   1_544  S
O995       H1018   0.965       .  S
C996       O1013   1.270       .  A
C996       O1005   1.252       .  A
C996       C1046   1.431       .  S
O997      Ni1460   1.881   1_545  S
O997       C1003   1.250       .  A
O998      Ni1460   2.121   1_545  S
O998       C1000   1.322       .  A
Ni999      O1437   1.926       .  S
Ni999      O1002   1.873   1_565  S
Ni999      O1448   1.815       .  S
C1000      O1010   1.258       .  A
C1000      C1097   1.562       .  S
O1001     Ni1017   1.916       .  S
O1001      C1007   1.273   1_565  A
O1002      C1007   1.276       .  A
C1003      C1193   1.478       .  S
O1004     Ni1443   1.816       .  S
O1004      C1006   1.255       .  A
O1005     Ni1016   1.859       .  S
C1006      O1012   1.362       .  A
C1006      C1238   1.627       .  S
C1007      C1081   1.445       .  S
H1008      O1009   0.959       .  S
O1009     Ni1461   2.030   1_556  S
O1009     Ni1011   1.821       .  S
O1009     Ni1016   2.055       .  S
O1010     Ni1455   1.874   1_545  S
Ni1011     O1454   1.874       .  S
Ni1011     O1015   1.857       .  S
Ni1011     O1013   1.953       .  S
Ni1011     O1439   1.956   1_556  S
O1012     Ni1461   2.266       .  S
C1014      O1015   1.212       .  A
C1014      C1209   1.372       .  S
Ni1016     O1441   1.881       .  S
Ni1016     O1442   2.121       .  S
Ni1017     O1456   2.266       .  S
Ni1017     O1453   2.030   1_554  S
O1019     Ni1025   1.943       .  S
O1019      C1040   1.287       .  A
O1020     Ni1043   1.879       .  S
O1020      C1029   1.242       .  A
O1021     Ni1025   1.920       .  S
O1021     Ni1043   1.898       .  S
O1021     Ni1037   2.027       .  S
O1021      H1044   0.965       .  S
C1022      O1039   1.322       .  A
C1022      O1031   1.279       .  A
C1022      C1062   1.591       .  S
O1023     Ni1042   1.899       .  S
O1023      C1029   1.268       .  A
O1024     Ni1042   1.903       .  S
O1024      C1026   1.269       .  A
Ni1025     O1028   2.027       .  S
Ni1025     O1030   1.856       .  S
C1026      O1036   1.261       .  A
C1026      C1302   1.460       .  S
O1027     Ni1043   1.907       .  S
O1027      C1033   1.251       .  A
O1028      C1033   1.287       .  A
C1029      C1129   1.446       .  S
C1032      C1049   1.444       .  S
C1033      C1161   1.560       .  S
O1035     Ni1043   1.914       .  S
O1035     Ni1037   1.833       .  S
O1035     Ni1042   1.866       .  S
O1036     Ni1037   1.914       .  S
Ni1037     O1041   1.915       .  S
O1038     Ni1043   1.941       .  S
C1040      O1041   1.283       .  A
C1040      C1110   1.483       .  S
C1045      C1046   1.385       .  A
C1045      C1050   1.387       .  A
C1045      H1052   1.086       .  S
C1046      C1047   1.413       .  A
C1047      C1048   1.389       .  A
C1047      C1054   1.513       .  S
C1048      C1049   1.393       .  A
C1049      C1050   1.410       .  A
C1050      C1051   1.495       .  S
C1051      F1055   1.384       .  S
C1051      F1056   1.374       .  S
C1051      F1057   1.376       .  S
C1054      F1059   1.383       .  S
C1061      C1062   1.404       .  A
C1061      C1066   1.406       .  A
C1061      H1068   1.081       .  S
C1062      C1063   1.444       .  A
C1063      C1508   1.481       .  A
C1063      C1070   1.511       .  S
C1064      C1507   1.481       .  A
C1064      C1065   1.441   1_565  A
C1064      H1069   1.081   1_565  S
C1065      C1510   1.461   1_545  A
C1066      C1509   1.461       .  A
C1066      C1511   1.541       .  S
C1067      C1510   1.541   1_545  S
C1067      F1072   1.360       .  S
C1067      F1073   1.360       .  S
C1070      F1074   1.383       .  S
C1070      F1075   1.380       .  S
C1070      F1076   1.384       .  S
C1077      C1078   1.396       .  A
C1077      C1082   1.388       .  A
C1077      H1084   1.084       .  S
C1078      C1079   1.416       .  A
C1079      C1080   1.393       .  A
C1079      C1086   1.514       .  S
C1080      C1081   1.395       .  A
C1080      H1085   1.085   1_545  S
C1081      C1082   1.411       .  A
C1082      C1083   1.510       .  S
C1083      F1087   1.383       .  S
C1083      F1088   1.383       .  S
C1083      F1089   1.380       .  S
C1086      F1090   1.384   1_545  S
C1086      F1091   1.385       .  S
C1086      F1092   1.383       .  S
C1093      C1094   1.423       .  A
C1093      C1098   1.458       .  A
C1093      H1100   1.080       .  S
C1094      C1095   1.461       .  A
C1095      C1096   1.428       .  A
C1095      C1102   1.504       .  S
C1096      C1097   1.387       .  A
C1096      H1101   1.082       .  S
C1097      C1098   1.442       .  A
C1098      C1099   1.515       .  S
C1099      F1103   1.384       .  S
C1099      F1104   1.383       .  S
C1099      F1105   1.382       .  S
C1102      F1106   1.383       .  S
C1102      F1107   1.372       .  S
C1102      F1108   1.387       .  S
C1109      C1110   1.401       .  A
C1109      C1114   1.402       .  A
C1109      H1116   1.085       .  S
C1111      C1112   1.412       .  A
C1111      C1118   1.520       .  S
C1112      C1113   1.401       .  A
C1112      H1117   1.083       .  S
C1114      C1115   1.518       .  S
C1115      F1119   1.384       .  S
C1115      F1120   1.383       .  S
C1115      F1121   1.383       .  S
C1118      F1122   1.384       .  S
C1118      F1123   1.382       .  S
C1118      F1124   1.385       .  S
C1125      C1574   1.399   1_545  A
C1125      H1132   1.073       .  S
C1126      C1571   1.390       .  A
C1127      C1570   1.390       .  A
C1127      C1578   1.515       .  S
C1128      C1129   1.407   1_455  A
C1129      C1130   1.390       .  A
C1130      C1569   1.399       .  A
C1130      C1131   1.511       .  S
C1131      F1579   1.374       .  S
C1131      F1136   1.384       .  S
C1131      F1137   1.377       .  S
C1134      C1571   1.515   1_565  S
C1134      F1138   1.362   1_565  S
C1134      F1139   1.375   1_565  S
C1134      F1584   1.365       .  S
F1135      C1575   1.374   1_545  S
F1140      C1578   1.365       .  S
C1141      C1142   1.415       .  A
C1141      C1146   1.406       .  A
C1141      H1148   1.083       .  S
C1142      C1143   1.443       .  A
C1143      C1144   1.417       .  A
C1143      C1150   1.523       .  S
C1144      C1145   1.400       .  A
C1144      H1149   1.082       .  S
C1145      C1146   1.398       .  A
C1146      C1147   1.506       .  S
C1147      F1152   1.385       .  S
C1147      F1153   1.380       .  S
C1150      F1154   1.377       .  S
C1150      F1155   1.384       .  S
C1150      F1156   1.385       .  S
C1157      C1158   1.427       .  A
C1157      C1162   1.435       .  A
C1157      H1164   1.083       .  S
C1158      C1159   1.423       .  A
C1159      C1160   1.438       .  A
C1159      C1166   1.513       .  S
C1160      C1161   1.428       .  A
C1160      H1165   1.084       .  S
C1161      C1162   1.424       .  A
C1162      C1163   1.515       .  S
C1163      F1167   1.384       .  S
C1163      F1168   1.382       .  S
C1163      F1169   1.383       .  S
C1166      F1170   1.382       .  S
C1166      F1171   1.382       .  S
C1166      F1172   1.383       .  S
C1173      C1174   1.428       .  A
C1173      C1178   1.457       .  A
C1173      H1180   1.082       .  S
C1174      C1175   1.444       .  A
C1176      C1177   1.420   1_655  A
C1176      H1181   1.082       .  S
C1178      C1179   1.513       .  S
C1179      F1183   1.384       .  S
C1179      F1184   1.383       .  S
C1179      F1185   1.382       .  S
C1182      F1186   1.383       .  S
C1182      F1188   1.384   1_455  S
C1189      C1190   1.402       .  A
C1189      C1194   1.409       .  A
C1189      H1196   1.083       .  S
C1190      C1191   1.425   1_556  A
C1191      C1636   1.399       .  A
C1191      C1198   1.519       .  S
C1192      C1635   1.399       .  A
C1192      C1193   1.397   1_554  A
C1192      H1197   1.083       .  S
C1193      C1638   1.421       .  A
C1194      C1637   1.421       .  A
C1194      C1195   1.519       .  S
C1195      F1643   1.385       .  S
C1195      F1644   1.383       .  S
C1195      F1201   1.383       .  S
C1198      F1646   1.382       .  S
C1198      F1203   1.377       .  S
C1198      F1204   1.385       .  S
F1199      C1639   1.385       .  S
F1200      C1639   1.383       .  S
F1202      C1642   1.382       .  S
C1205      C1650   1.405   1_455  A
C1205      H1212   1.076   1_565  S
C1206      C1649   1.405   1_655  A
C1206      C1207   1.397       .  A
C1207      C1214   1.511       .  S
C1208      C1209   1.404   1_554  A
C1208      H1213   1.083   1_554  S
C1209      C1654   1.408   1_556  A
C1210      C1653   1.408   1_554  A
C1210      C1211   1.532   1_565  S
C1211      F1215   1.382   1_554  S
C1211      F1216   1.374   1_554  S
C1211      F1661   1.379       .  S
C1214      F1662   1.384       .  S
C1214      F1219   1.383       .  S
C1214      F1220   1.380       .  S
F1217      C1655   1.379       .  S
F1218      C1658   1.384       .  S
C1221      C1222   1.387       .  A
C1221      C1226   1.384   1_655  A
C1221      H1228   1.085       .  S
C1222      C1223   1.417       .  A
C1223      C1224   1.392       .  A
C1223      C1674   1.506   1_545  S
C1224      C1225   1.389       .  A
C1224      H1229   1.087       .  S
C1225      C1226   1.414   1_655  A
C1227      F1231   1.386       .  S
C1227      F1232   1.376       .  S
C1227      F1233   1.379       .  S
C1230      C1667   1.506       .  S
C1230      F1234   1.378       .  S
C1230      F1235   1.378       .  S
C1230      F1236   1.384       .  S
C1237      C1242   1.426   1_455  A
C1238      C1239   1.447       .  A
C1239      C1246   1.506       .  S
C1240      C1241   1.447       .  A
C1240      H1245   1.081       .  S
C1241      C1242   1.443       .  A
C1242      C1243   1.538       .  S
C1243      F1247   1.358       .  S
C1243      F1248   1.349       .  S
C1243      F1249   1.383       .  S
C1246      F1250   1.383       .  S
C1246      F1251   1.383       .  S
C1246      F1252   1.384       .  S
C1253      C1698   1.424   1_545  A
C1253      C1258   1.422       .  A
C1253      H1260   1.073       .  S
C1254      C1697   1.424       .  A
C1254      C1255   1.429       .  A
C1255      C1700   1.461       .  A
C1255      C1262   1.509       .  S
C1256      C1699   1.461       .  A
C1256      C1257   1.434       .  A
C1256      H1261   1.082       .  S
C1257      C1258   1.419       .  A
C1258      C1259   1.514       .  S
C1259      F1263   1.385       .  S
C1259      F1265   1.376       .  S
C1262      F1266   1.383       .  S
C1262      F1267   1.383       .  S
C1262      F1268   1.384       .  S
C1269      C1270   1.402       .  A
C1269      C1274   1.412       .  A
C1269      H1276   1.083       .  S
C1270      C1271   1.418       .  A
C1271      C1272   1.405       .  A
C1271      C1278   1.515       .  S
C1272      C1273   1.400       .  A
C1272      H1277   1.083       .  S
C1273      C1274   1.420       .  A
C1274      C1275   1.518       .  S
C1275      F1279   1.385       .  S
C1275      F1280   1.384       .  S
C1275      F1281   1.382       .  S
C1278      F1282   1.382       .  S
C1278      F1283   1.382       .  S
C1278      F1284   1.385       .  S
C1285      C1286   1.394       .  A
C1285      H1292   1.083       .  S
C1286      C1731   1.395       .  A
C1287      C1730   1.395       .  A
C1287      C1294   1.503       .  S
C1288      C1289   1.430       .  A
C1288      H1293   1.083       .  S
C1289      C1290   1.433       .  A
C1290      C1291   1.519   1_655  S
C1291      F1739   1.379       .  S
C1291      F1296   1.379   1_455  S
C1291      F1297   1.380       .  S
C1294      F1742   1.377       .  S
C1294      F1743   1.385       .  S
C1294      F1300   1.383       .  S
F1295      C1735   1.378       .  S
F1298      C1738   1.377       .  S
F1299      C1738   1.385       .  S
C1301      C1302   1.395       .  A
C1301      C1306   1.401       .  A
C1301      H1308   1.083       .  S
C1302      C1303   1.410       .  A
C1303      C1304   1.396       .  A
C1303      C1310   1.510       .  S
C1304      C1305   1.399       .  A
C1304      H1309   1.085       .  S
C1305      C1306   1.427       .  A
C1306      C1307   1.522       .  S
C1307      F1311   1.384       .  S
C1307      F1312   1.383       .  S
C1307      F1313   1.383       .  S
C1310      F1314   1.383       .  S
C1310      F1315   1.381       .  S
C1310      F1316   1.383       .  S
C1317      C1318   1.400       .  A
C1317      C1322   1.391       .  A
C1317      H1324   1.085       .  S
C1318      C1319   1.418       .  A
C1319      C1320   1.399       .  A
C1319      C1326   1.516       .  S
C1320      C1321   1.396       .  A
C1320      H1325   1.083       .  S
C1321      C1322   1.411       .  A
C1322      C1323   1.513       .  S
C1323      F1327   1.382       .  S
C1323      F1328   1.384       .  S
C1323      F1329   1.384       .  S
C1326      F1330   1.379       .  S
C1326      F1331   1.381       .  S
C1326      F1332   1.385       .  S
O1333     Ni1339   1.970       .  S
O1333      C1354   1.299       .  A
O1334     Ni1357   1.893       .  S
O1334      C1343   1.241       .  A
O1335     Ni1339   1.899       .  S
O1335     Ni1357   1.843       .  S
O1335     Ni1351   2.023       .  S
O1335      H1358   0.963       .  S
C1336      O1353   1.343       .  A
C1336      O1345   1.244       .  A
C1336      C1685   1.604       .  S
O1337     Ni1356   1.875       .  S
O1337      C1343   1.250       .  A
O1338     Ni1356   1.917       .  S
O1338      C1340   1.256       .  A
Ni1339     O1342   2.095       .  S
Ni1339     O1344   1.848       .  S
C1340      O1350   1.242       .  A
C1340      C1762   1.451       .  S
O1341     Ni1357   1.873       .  S
O1341      C1347   1.233       .  A
O1342      C1347   1.297       .  A
C1343      C1733   1.459       .  S
O1344      C1346   1.255       .  A
O1345     Ni1356   1.868       .  S
C1346      O1352   1.286       .  A
C1346      C1749   1.460       .  S
C1347      C1698   1.576       .  S
H1348      O1349   0.965       .  S
O1349     Ni1357   1.887       .  S
O1349     Ni1351   1.859       .  S
O1349     Ni1356   1.841       .  S
O1350     Ni1351   1.863       .  S
Ni1351     O1355   1.920       .  S
Ni1351     O1353   2.141       .  S
O1352     Ni1357   1.964       .  S
C1354      O1355   1.296       .  A
C1354      C1717   1.482       .  S
O1359      C1380   1.284   1_554  A
O1360      C1369   1.244       .  A
O1361     Ni1365   1.906       .  S
O1361     Ni1383   1.886       .  S
O1361      H1384   0.963   1_554  S
C1362      O1379   1.331       .  A
C1362      O1371   1.267       .  A
C1362      C1602   1.543       .  S
O1363     Ni1382   1.846   1_554  S
O1363      C1369   1.266       .  A
O1364      C1366   1.259       .  A
Ni1365     O1368   2.023       .  S
C1366      O1376   1.252       .  A
C1366      C1666   1.439       .  S
O1367     Ni1383   1.979       .  S
O1367      C1373   1.275       .  A
O1368      C1373   1.290       .  A
C1369      C1650   1.406       .  S
O1370      C1372   1.272   1_545  A
O1371     Ni1382   1.889       .  S
C1372      O1378   1.267       .  A
C1372      C1765   1.462       .  S
C1373      C1621   1.588   1_655  S
H1374      O1375   0.967       .  S
O1375     Ni1377   1.823   1_554  S
O1375     Ni1382   1.844   1_554  S
Ni1377     O1381   1.916   1_565  S
Ni1377     O1379   2.062       .  S
C1380      O1381   1.286       .  A
C1380      C1634   1.483       .  S
O1385     Ni1391   1.898       .  S
O1385      C1406   1.258       .  A
O1386     Ni1409   1.941       .  S
O1386      C1395   1.304       .  A
O1387     Ni1391   1.882       .  S
O1387     Ni1409   1.910       .  S
O1387     Ni1403   1.962       .  S
C1388      O1405   1.286       .  A
C1388      O1397   1.280       .  A
C1388      C1589   1.481       .  S
O1389     Ni1408   1.911       .  S
O1389      C1395   1.292       .  A
O1390     Ni1408   1.893       .  S
Ni1391     O1396   1.875       .  S
C1392      C1701   1.573       .  S
O1393      C1399   1.264       .  A
O1394      C1399   1.288       .  A
C1395      C1557   1.472       .  S
O1396      C1398   1.241       .  A
O1397     Ni1408   1.925       .  S
C1398      O1404   1.313       .  A
C1398      C1538   1.604       .  S
C1399      C1669   1.436   1_455  S
H1400      O1401   0.967       .  S
O1401     Ni1409   1.866       .  S
O1401     Ni1403   1.879       .  S
O1401     Ni1408   1.803       .  S
O1402     Ni1403   2.074       .  S
Ni1403     O1407   1.899       .  S
Ni1403     O1405   1.889       .  S
O1404     Ni1409   2.104       .  S
C1406      O1407   1.248       .  A
C1406      C1570   1.470       .  S
O1411     Ni1417   1.973       .  S
O1411      C1432   1.276       .  A
O1412     Ni1435   1.921       .  S
O1412      C1421   1.263       .  A
O1413     Ni1417   1.847       .  S
O1413     Ni1435   1.875       .  S
O1413     Ni1429   1.904       .  S
O1413      H1436   0.962       .  S
C1414      O1431   1.267       .  A
C1414      O1423   1.274       .  A
C1414      C1522   1.458       .  S
O1415     Ni1434   1.887       .  S
O1415      C1421   1.253       .  A
O1416     Ni1434   2.015       .  S
O1416      C1418   1.283       .  A
Ni1417     O1420   1.944       .  S
Ni1417     O1422   1.885       .  S
C1418      O1428   1.277       .  A
C1418      C1618   1.599       .  S
O1419     Ni1435   1.913       .  S
O1419      C1425   1.279       .  A
O1420      C1425   1.293       .  A
C1421      C1714   1.481       .  S
O1422      C1424   1.231       .  A
O1423     Ni1434   1.909       .  S
C1424      O1430   1.325       .  A
C1424      C1509   1.599       .  S
C1425      C1586   1.488       .  S
H1426      O1427   0.966       .  S
O1427     Ni1435   2.001       .  S
O1427     Ni1429   1.828       .  S
O1427     Ni1434   2.002       .  S
O1428     Ni1429   1.996       .  S
Ni1429     O1433   1.814       .  S
Ni1429     O1431   1.870       .  S
O1430     Ni1435   2.136       .  S
C1432      O1433   1.249       .  A
C1432      C1730   1.478       .  S
O1437      C1458   1.224   1_554  A
O1438     Ni1461   1.936       .  S
O1438      C1447   1.267   1_554  A
O1439     Ni1443   1.749       .  S
O1439     Ni1461   1.993       .  S
O1439      H1462   0.965       .  S
C1440      O1457   1.270       .  A
C1440      O1449   1.252       .  A
C1440      C1490   1.430       .  S
O1441      C1447   1.250       .  A
O1442      C1444   1.322       .  A
Ni1443     O1446   1.873       .  S
C1444      O1454   1.258       .  A
C1444      C1541   1.562       .  S
O1445     Ni1461   1.915       .  S
O1445      C1451   1.273       .  A
O1446      C1451   1.276       .  A
C1447      C1637   1.478       .  S
O1448      C1450   1.255       .  A
O1449     Ni1460   1.859       .  S
C1450      O1456   1.362       .  A
C1450      C1682   1.627       .  S
C1451      C1525   1.445       .  S
H1452      O1453   0.959       .  S
O1453     Ni1455   1.821       .  S
O1453     Ni1460   2.055       .  S
Ni1455     O1459   1.857       .  S
Ni1455     O1457   1.953       .  S
C1458      O1459   1.212       .  A
C1458      C1653   1.372       .  S
O1463     Ni1469   1.943       .  S
O1463      C1484   1.287       .  A
O1464     Ni1487   1.879       .  S
O1464      C1473   1.242       .  A
O1465     Ni1469   1.920       .  S
O1465     Ni1487   1.897       .  S
O1465     Ni1481   2.027       .  S
O1465      H1488   0.965       .  S
C1466      O1483   1.322       .  A
C1466      O1475   1.279       .  A
C1466      C1506   1.591       .  S
O1467     Ni1486   1.899       .  S
O1467      C1473   1.268       .  A
O1468     Ni1486   1.903       .  S
O1468      C1470   1.269       .  A
Ni1469     O1472   2.028       .  S
Ni1469     O1474   1.856       .  S
C1470      O1480   1.261       .  A
C1470      C1746   1.460       .  S
O1471     Ni1487   1.907       .  S
O1471      C1477   1.250       .  A
O1472      C1477   1.287       .  A
C1473      C1573   1.446       .  S
C1476      C1493   1.444       .  S
C1477      C1605   1.560       .  S
O1479     Ni1487   1.914       .  S
O1479     Ni1481   1.833       .  S
O1479     Ni1486   1.867       .  S
O1480     Ni1481   1.913       .  S
Ni1481     O1485   1.915       .  S
O1482     Ni1487   1.942       .  S
C1484      O1485   1.283       .  A
C1484      C1554   1.483       .  S
C1489      C1490   1.385       .  A
C1489      C1494   1.387       .  A
C1489      H1496   1.086       .  S
C1490      C1491   1.413       .  A
C1491      C1492   1.388       .  A
C1491      C1498   1.513       .  S
C1492      C1493   1.393       .  A
C1493      C1494   1.410       .  A
C1494      C1495   1.495       .  S
C1495      F1499   1.384       .  S
C1495      F1500   1.374       .  S
C1495      F1501   1.376       .  S
C1498      F1503   1.383       .  S
C1505      C1506   1.404       .  A
C1505      C1510   1.406       .  A
C1505      H1512   1.081       .  S
C1506      C1507   1.444       .  A
C1507      C1514   1.511       .  S
C1508      C1509   1.441       .  A
C1508      H1513   1.081       .  S
C1511      F1516   1.359       .  S
C1511      F1517   1.359       .  S
C1514      F1518   1.383       .  S
C1514      F1519   1.380       .  S
C1514      F1520   1.384       .  S
C1521      C1522   1.396       .  A
C1521      C1526   1.388       .  A
C1521      H1528   1.084       .  S
C1522      C1523   1.416       .  A
C1523      C1524   1.393       .  A
C1523      C1530   1.514       .  S
C1524      C1525   1.395       .  A
C1524      H1529   1.085       .  S
C1525      C1526   1.411       .  A
C1526      C1527   1.510       .  S
C1527      F1531   1.383       .  S
C1527      F1532   1.383       .  S
C1527      F1533   1.380       .  S
C1530      F1534   1.384       .  S
C1530      F1535   1.385       .  S
C1530      F1536   1.383       .  S
C1537      C1538   1.423       .  A
C1537      C1542   1.458       .  A
C1537      H1544   1.080       .  S
C1538      C1539   1.461       .  A
C1539      C1540   1.428       .  A
C1539      C1546   1.504       .  S
C1540      C1541   1.387       .  A
C1540      H1545   1.082       .  S
C1541      C1542   1.442       .  A
C1542      C1543   1.515       .  S
C1543      F1547   1.384       .  S
C1543      F1548   1.383       .  S
C1543      F1549   1.382       .  S
C1546      F1550   1.383       .  S
C1546      F1551   1.372       .  S
C1546      F1552   1.387       .  S
C1553      C1554   1.401       .  A
C1553      C1558   1.402       .  A
C1553      H1560   1.085       .  S
C1555      C1556   1.412       .  A
C1555      C1562   1.520       .  S
C1556      C1557   1.401       .  A
C1556      H1561   1.083       .  S
C1558      C1559   1.518       .  S
C1559      F1563   1.384       .  S
C1559      F1564   1.383       .  S
C1559      F1565   1.383       .  S
C1562      F1566   1.384       .  S
C1562      F1567   1.382       .  S
C1562      F1568   1.385       .  S
C1569      H1576   1.073       .  S
C1572      C1573   1.407   1_455  A
C1573      C1574   1.390       .  A
C1574      C1575   1.511       .  S
C1575      F1580   1.384       .  S
C1575      F1581   1.377       .  S
C1578      F1582   1.362       .  S
C1578      F1583   1.375       .  S
C1585      C1586   1.415       .  A
C1585      C1590   1.406       .  A
C1585      H1592   1.083       .  S
C1586      C1587   1.443       .  A
C1587      C1588   1.417       .  A
C1587      C1594   1.523       .  S
C1588      C1589   1.400       .  A
C1588      H1593   1.082       .  S
C1589      C1590   1.399       .  A
C1590      C1591   1.506       .  S
C1591      F1596   1.385       .  S
C1591      F1597   1.380       .  S
C1594      F1598   1.377       .  S
C1594      F1599   1.384       .  S
C1594      F1600   1.385       .  S
C1601      C1602   1.427       .  A
C1601      C1606   1.435       .  A
C1601      H1608   1.083       .  S
C1602      C1603   1.423       .  A
C1603      C1604   1.438       .  A
C1603      C1610   1.513       .  S
C1604      C1605   1.428       .  A
C1604      H1609   1.084       .  S
C1605      C1606   1.424       .  A
C1606      C1607   1.515       .  S
C1607      F1611   1.384       .  S
C1607      F1612   1.382       .  S
C1607      F1613   1.383       .  S
C1610      F1614   1.382       .  S
C1610      F1615   1.382       .  S
C1610      F1616   1.383       .  S
C1617      C1618   1.428       .  A
C1617      C1622   1.457       .  A
C1617      H1624   1.082       .  S
C1618      C1619   1.444       .  A
C1620      C1621   1.419   1_655  A
C1620      H1625   1.083       .  S
C1622      C1623   1.513       .  S
C1623      F1627   1.384       .  S
C1623      F1628   1.383       .  S
C1623      F1629   1.382       .  S
C1626      F1630   1.383       .  S
C1626      F1632   1.384   1_455  S
C1633      C1634   1.402       .  A
C1633      C1638   1.409       .  A
C1633      H1640   1.083       .  S
C1634      C1635   1.425   1_556  A
C1635      C1642   1.519       .  S
C1636      C1637   1.397   1_554  A
C1636      H1641   1.083       .  S
C1638      C1639   1.519       .  S
C1639      F1645   1.383   1_545  S
C1642      F1647   1.377   1_545  S
C1642      F1648   1.385       .  S
C1649      H1656   1.076       .  S
C1650      C1651   1.397       .  A
C1651      C1658   1.511       .  S
C1652      C1653   1.404   1_554  A
C1652      H1657   1.084   1_554  S
C1654      C1655   1.532       .  S
C1655      F1659   1.382   1_554  S
C1655      F1660   1.374   1_554  S
C1658      F1663   1.383       .  S
C1658      F1664   1.380       .  S
C1665      C1666   1.387       .  A
C1665      C1670   1.384   1_655  A
C1665      H1672   1.085       .  S
C1666      C1667   1.417       .  A
C1667      C1668   1.391       .  A
C1668      C1669   1.389       .  A
C1668      H1673   1.087       .  S
C1669      C1670   1.414   1_655  A
C1671      F1675   1.386       .  S
C1671      F1676   1.376       .  S
C1671      F1677   1.379       .  S
C1674      F1678   1.378       .  S
C1674      F1679   1.378       .  S
C1674      F1680   1.384   1_565  S
C1681      C1686   1.426   1_455  A
C1682      C1683   1.447       .  A
C1683      C1690   1.506       .  S
C1684      C1685   1.447       .  A
C1684      H1689   1.081       .  S
C1685      C1686   1.444       .  A
C1686      C1687   1.538       .  S
C1687      F1691   1.359       .  S
C1687      F1692   1.349       .  S
C1687      F1693   1.383       .  S
C1690      F1694   1.383       .  S
C1690      F1695   1.383       .  S
C1690      F1696   1.384       .  S
C1697      C1702   1.422       .  A
C1697      H1704   1.073       .  S
C1698      C1699   1.429   1_565  A
C1699      C1706   1.509   1_545  S
C1700      C1701   1.434       .  A
C1700      H1705   1.082       .  S
C1701      C1702   1.419       .  A
C1702      C1703   1.514       .  S
C1703      F1707   1.385       .  S
C1703      F1709   1.376       .  S
C1706      F1710   1.383       .  S
C1706      F1711   1.383       .  S
C1706      F1712   1.384       .  S
C1713      C1714   1.402       .  A
C1713      C1718   1.412       .  A
C1713      H1720   1.083       .  S
C1714      C1715   1.418       .  A
C1715      C1716   1.405       .  A
C1715      C1722   1.515       .  S
C1716      C1717   1.400       .  A
C1716      H1721   1.083       .  S
C1717      C1718   1.420       .  A
C1718      C1719   1.518       .  S
C1719      F1723   1.385       .  S
C1719      F1724   1.384       .  S
C1719      F1725   1.382       .  S
C1722      F1726   1.382       .  S
C1722      F1727   1.382       .  S
C1722      F1728   1.385       .  S
C1729      C1730   1.394       .  A
C1729      H1736   1.083       .  S
C1731      C1738   1.503       .  S
C1732      C1733   1.430       .  A
C1732      H1737   1.083       .  S
C1733      C1734   1.433       .  A
C1734      C1735   1.518   1_665  S
C1735      F1740   1.380   1_455  S
C1735      F1741   1.380       .  S
C1738      F1744   1.383       .  S
C1745      C1746   1.395       .  A
C1745      C1750   1.401       .  A
C1745      H1752   1.083       .  S
C1746      C1747   1.410       .  A
C1747      C1748   1.396       .  A
C1747      C1754   1.510       .  S
C1748      C1749   1.399       .  A
C1748      H1753   1.085       .  S
C1749      C1750   1.427       .  A
C1750      C1751   1.522       .  S
C1751      F1755   1.384       .  S
C1751      F1756   1.383       .  S
C1751      F1757   1.383       .  S
C1754      F1758   1.383       .  S
C1754      F1759   1.381       .  S
C1754      F1760   1.383       .  S
C1761      C1762   1.400       .  A
C1761      C1766   1.391       .  A
C1761      H1768   1.085       .  S
C1762      C1763   1.417       .  A
C1763      C1764   1.399       .  A
C1763      C1770   1.516       .  S
C1764      C1765   1.396       .  A
C1764      H1769   1.083   1_565  S
C1765      C1766   1.412       .  A
C1766      C1767   1.513       .  S
C1767      F1771   1.382       .  S
C1767      F1772   1.384       .  S
C1767      F1773   1.384       .  S
C1770      F1774   1.379   1_565  S
C1770      F1775   1.381       .  S
C1770      F1776   1.385   1_565  S
