geometry optimzed in LAMMPS
_audit_creation_date              2020-11-30 
_audit_creation_method            'lammps2cif' 
_symmetry_space_group_name_H-M    'P1' 
_symmetry_Int_Tables_number       1 
_symmetry_cell_setting            triclinic 
loop_ 
_symmetry_equiv_pos_as_xyz 
  x,y,z 
_cell_length_a                    45.24710720266613 
_cell_length_b                    45.224214344691646 
_cell_length_c                    45.21503704322246 
_cell_angle_alpha                 90.02457665430218 
_cell_angle_beta                  89.99645324096599 
_cell_angle_gamma                 90.00426206389623 
loop_ 
_atom_site_label 
_atom_site_type_symbol 
_atom_site_fract_x 
_atom_site_fract_y 
_atom_site_fract_z 
_atom_site_charge 
N1          N  0.06086021  0.48702870  0.21364539    -0.08100
N2          N  0.07766280  0.47704552  0.19196089    -0.60220
N3          N  0.06072266  0.01558290  0.28191944    -0.07780
N4          N  0.07755320  0.02575376  0.30348010    -0.62340
N5          N  0.06082564  0.48649942  0.28176188    -0.07370
N6          N  0.07774557  0.47627987  0.30325001    -0.60190
N7          N  0.06085943  0.01611105  0.21393943    -0.07050
N8          N  0.07773952  0.02652063  0.19252412    -0.62700
C9          C  0.08798263  0.00191263  0.17890343     0.94080
C10         C  0.08795182  0.50101857  0.31669388     0.93860
N11         N  0.48235598  0.06448310  0.28234046    -0.08280
N12         N  0.47213039  0.08096981  0.30416534    -0.60790
N13         N  0.01151105  0.06519540  0.21428210    -0.06400
N14         N  0.02172911  0.08221163  0.19288231    -0.62050
N15         N  0.48243989  0.06515708  0.21423047    -0.08310
N16         N  0.47228057  0.08215639  0.19278048    -0.61060
N17         N  0.01142298  0.06453738  0.28235060    -0.06040
N18         N  0.02157960  0.08105258  0.30417585    -0.62130
Mn19       Mn  0.03677468  0.04101916  0.24811744     1.18440
C20         C  0.49684009  0.09108233  0.31768172     0.96160
C21         C  0.99702944  0.09257692  0.17956666     0.96830
N22         N  0.01169430  0.43707338  0.28120446    -0.08330
N23         N  0.02185789  0.42002760  0.30260963    -0.64640
N24         N  0.48275733  0.43770116  0.21308397    -0.07130
N25         N  0.47261332  0.42115679  0.19127839    -0.65310
N26         N  0.01182494  0.43773866  0.21312647    -0.07840
N27         N  0.02206349  0.42121555  0.19133484    -0.64900
N28         N  0.48262303  0.43701617  0.28113453    -0.06730
N29         N  0.47240838  0.41994392  0.30249329    -0.65590
Mn30       Mn  0.03697721  0.46140671  0.24744718     1.10660
C31         C  0.49711456  0.40956362  0.31578920     0.97380
C32         C  0.99735977  0.41109695  0.17781183     0.97460
N33         N  0.43327510  0.01576962  0.21375588    -0.07850
N34         N  0.41624656  0.02604519  0.19238875    -0.63220
N35         N  0.43326131  0.48609427  0.28145794    -0.07160
N36         N  0.41629752  0.47565392  0.30278927    -0.59950
N37         N  0.43330615  0.01517691  0.28182978    -0.08470
N38         N  0.41646248  0.02512889  0.30349793    -0.62790
N39         N  0.43343475  0.48668649  0.21348086    -0.07460
N40         N  0.41656447  0.47657337  0.19191634    -0.59970
Mn41       Mn  0.45717489  0.04082740  0.24803711     1.20190
Mn42       Mn  0.45737467  0.46121187  0.24728446     1.10090
Cl43       Cl  0.99707340  0.00111445  0.24772158    -0.87940
C44         C  0.40605929  0.00135220  0.17885847     0.94390
C45         C  0.40606331  0.50023957  0.31645084     0.94190
N46         N  0.48273142  0.21727643  0.06163771    -0.08100
N47         N  0.47255290  0.19587631  0.07867542    -0.60220
N48         N  0.01176477  0.28534518  0.06126000    -0.07780
N49         N  0.02199032  0.30717070  0.07773608    -0.62340
N50         N  0.48269746  0.28533983  0.06132035    -0.07370
N51         N  0.47253855  0.30715659  0.07784542    -0.60190
N52         N  0.01180270  0.21726395  0.06159308    -0.07050
N53         N  0.02200028  0.19585099  0.07861607    -0.62700
C54         C  0.99727436  0.18260470  0.08904716     0.94080
C55         C  0.49728475  0.32066608  0.08786644     0.93860
N56         N  0.06074411  0.28515880  0.48288752    -0.08280
N57         N  0.07750195  0.30670336  0.47257500    -0.60790
N58         N  0.06095455  0.21714670  0.01215700    -0.06400
N59         N  0.07813351  0.19580538  0.02225697    -0.62050
N60         N  0.06102091  0.21730641  0.48306595    -0.08310
N61         N  0.07834630  0.19621495  0.47276691    -0.61060
N62         N  0.06077670  0.28527640  0.01197803    -0.06040
N63         N  0.07748860  0.30698539  0.02206438    -0.62130
Mn64       Mn  0.03699154  0.25122796  0.03742906     1.18440
C65         C  0.08770933  0.32022898  0.49724580     0.96160
C66         C  0.08876249  0.18287636  0.49742666     0.96830
N67         N  0.43333141  0.28514979  0.01230708    -0.08330
N68         N  0.41631881  0.30657635  0.02249958    -0.64640
N69         N  0.43327446  0.21721249  0.48336718    -0.07130
N70         N  0.41619707  0.19589426  0.47313452    -0.65310
N71         N  0.43345186  0.21704674  0.01245576    -0.07840
N72         N  0.41657777  0.19549316  0.02262477    -0.64900
N73         N  0.43328099  0.28510064  0.48321495    -0.06730
N74         N  0.41619445  0.30644450  0.47301569    -0.65590
Mn75       Mn  0.45739917  0.25118873  0.03761080     1.10660
C76         C  0.40584743  0.31975727  0.49775271     0.97380
C77         C  0.40602986  0.18243110  0.49783154     0.97460
N78         N  0.01151471  0.21685155  0.43416876    -0.07850
N79         N  0.02166746  0.19499704  0.41768735    -0.63220
N80         N  0.48242572  0.28494697  0.43380657    -0.07160
N81         N  0.47222948  0.30632599  0.41674534    -0.59950
N82         N  0.01149243  0.28490970  0.43373917    -0.08470
N83         N  0.02167571  0.30625663  0.41664103    -0.62790
N84         N  0.48244387  0.21686526  0.43421750    -0.07460
N85         N  0.47221622  0.19501377  0.41777455    -0.59970
Mn86       Mn  0.03682716  0.25105803  0.45780129     1.20190
Mn87       Mn  0.45721265  0.25105675  0.45798622     1.10090
Cl88       Cl  0.49710752  0.25112599  0.49771303    -0.87940
C89         C  0.99691828  0.18148230  0.40767836     0.94390
C90         C  0.49695596  0.31952169  0.40626257     0.94190
N91         N  0.28064261  0.43709615  0.48329297    -0.08100
N92         N  0.30203437  0.42006136  0.47311008    -0.60220
N93         N  0.21253132  0.43762763  0.01217353    -0.07780
N94         N  0.19080944  0.42092504  0.02223892    -0.62340
N95         N  0.21272934  0.43755998  0.48308614    -0.07370
N96         N  0.19122506  0.42076711  0.47275390    -0.60190
N97         N  0.28062071  0.43712844  0.01238522    -0.07050
N98         N  0.30204445  0.42013076  0.02259531    -0.62700
C99         C  0.31529309  0.40969995  0.49784955     0.94080
C100        C  0.17763765  0.41062652  0.49740017     0.93860
N101        N  0.21297901  0.01600970  0.06136744    -0.08280
N102        N  0.19156735  0.02641590  0.07824791    -0.60790
N103        N  0.28079493  0.48650042  0.06161993    -0.06400
N104        N  0.30226487  0.47630557  0.07857418    -0.62050
N105        N  0.28088569  0.01558488  0.06155696    -0.08310
N106        N  0.30235934  0.02578165  0.07847128    -0.61060
N107        N  0.21270632  0.48692655  0.06135286    -0.06040
N108        N  0.19103170  0.47694182  0.07816033    -0.62130
Mn109      Mn  0.24666157  0.46136347  0.03756722     1.18440
C110        C  0.17796193  0.00181566  0.08848469     0.96160
C111        C  0.31560393  0.50106230  0.08886548     0.96830
N112        N  0.21314016  0.48668642  0.43390716    -0.08330
N113        N  0.19154234  0.47654539  0.41710846    -0.64640
N114        N  0.28140424  0.01529349  0.43404628    -0.07130
N115        N  0.30306394  0.02525023  0.41720019    -0.65310
N116        N  0.28106695  0.48621140  0.43399407    -0.07840
N117        N  0.30240174  0.47577718  0.41703893    -0.64900
N118        N  0.21332964  0.01576981  0.43380150    -0.06730
N119        N  0.19185146  0.02601895  0.41690095    -0.65590
Mn120      Mn  0.24689696  0.46124716  0.45792754     1.10660
C121        C  0.17836426  0.00130497  0.40671369     0.97380
C122        C  0.31604047  0.50035650  0.40680657     0.97460
N123        N  0.28147582  0.06465083  0.01225490    -0.07850
N124        N  0.30298574  0.08156345  0.02244913    -0.63580
N125        N  0.21365697  0.06522281  0.48293655    -0.07160
N126        N  0.19258128  0.08255253  0.47262011    -0.59950
N127        N  0.21339262  0.06510680  0.01202799    -0.08470
N128        N  0.19200175  0.08222786  0.02210983    -0.62790
N129        N  0.28142557  0.06470365  0.48316365    -0.07460
N130        N  0.30276985  0.08175648  0.47295747    -0.59970
Mn131      Mn  0.24718099  0.04098206  0.03745666     1.20190
Mn132      Mn  0.24746565  0.04088999  0.45781932     1.10090
Cl133      Cl  0.24705572  0.00112208  0.49769892    -0.87940
C134        C  0.31614082  0.09201432  0.49767893     0.94390
C135        C  0.17915161  0.09290004  0.49728047     0.94190
C136        C  0.37417909  0.35647910  0.52446558    -0.15320
C137        C  0.38404382  0.34409389  0.49773188     0.06830
C138        C  0.37206060  0.35439075  0.47099692    -0.15320
C139        C  0.35012924  0.37615440  0.47102852    -0.15320
C140        C  0.33975466  0.38803957  0.49779189     0.06830
C141        C  0.35223051  0.37825453  0.52449734    -0.15320
H142        H  0.38310417  0.34903130  0.54540135     0.10810
H143        H  0.37925371  0.34526519  0.45005798     0.10810
H144        H  0.34093651  0.38329724  0.45010038     0.10810
H145        H  0.34473307  0.38710879  0.04544392     0.10810
C146        C  0.36937440  0.15077784  0.47141810    -0.15320
C147        C  0.38428878  0.15809665  0.49764677     0.06830
C148        C  0.37748049  0.14269048  0.02373989    -0.15320
C149        C  0.35568223  0.12074281  0.02369422    -0.15320
C150        C  0.34036995  0.11386940  0.49755740     0.06830
C151        C  0.34762881  0.12887640  0.47137163    -0.15320
H152        H  0.37408882  0.16239147  0.45101067     0.10810
H153        H  0.38878491  0.14780504  0.04421817     0.10810
H154        H  0.35060369  0.10936953  0.04414891     0.10810
H155        H  0.33608167  0.12412198  0.45094187     0.10810
C156        C  0.11769747  0.35849235  0.52366661    -0.15320
C157        C  0.10915290  0.34485184  0.49709672     0.06830
C158        C  0.12218383  0.35411253  0.47047461    -0.15320
C159        C  0.14396096  0.37601926  0.47051917    -0.15320
C160        C  0.15311291  0.38907262  0.49718050     0.06830
C161        C  0.13948977  0.38041641  0.52371123    -0.15320
H162        H  0.10787920  0.35189260  0.54449090     0.10810
H163        H  0.11602022  0.34398602  0.44966867     0.10810
H164        H  0.15408367  0.38226938  0.44972776     0.10810
H165        H  0.14600474  0.39023678  0.54455104     0.10810
C166        C  0.12627497  0.15208658  0.47112084    -0.15320
C167        C  0.11080197  0.15880630  0.49719241     0.06830
C168        C  0.11726717  0.14300383  0.52312928    -0.15320
C169        C  0.13918419  0.12118390  0.52308140    -0.15320
C170        C  0.15498334  0.11482843  0.49710420     0.06830
C171        C  0.14816007  0.13030643  0.47107452    -0.15320
H172        H  0.12185354  0.16405240  0.45084674     0.10810
H173        H  0.10554306  0.14765768  0.54347649     0.10810
H174        H  0.14392055  0.10944334  0.54341326     0.10810
H175        H  0.16011076  0.12597119  0.45078548     0.10810
C176        C  0.37664806  0.52638348  0.35532936    -0.15320
C177        C  0.38446605  0.49998691  0.34094302     0.06830
C178        C  0.37061667  0.47350857  0.34937452    -0.15320
C179        C  0.34881475  0.47354333  0.37126954    -0.15320
C180        C  0.34046033  0.50005615  0.38513128     0.06830
C181        C  0.35483366  0.52641875  0.37723175    -0.15320
H182        H  0.38710447  0.54708400  0.34937590     0.10810
H183        H  0.37618067  0.45284312  0.33862004     0.10810
H184        H  0.33806482  0.45289766  0.37689404     0.10810
H185        H  0.34893713  0.54713998  0.38768952     0.10810
C186        C  0.12085814  0.02792235  0.35208285    -0.15320
C187        C  0.10957855  0.50110132  0.34118141     0.06830
C188        C  0.12003523  0.47439602  0.35306087    -0.15320
C189        C  0.14193586  0.47448470  0.37487162    -0.15320
C190        C  0.15379462  0.00128752  0.38518578     0.06830
C191        C  0.14276953  0.02801033  0.37387445    -0.15320
H192        H  0.11316003  0.04884477  0.34338131     0.10810
H193        H  0.11165778  0.45339296  0.34514281     0.10810
H194        H  0.14994313  0.45355710  0.38327328     0.10810
H195        H  0.15145555  0.04900825  0.38147152     0.10810
C196        C  0.11799406  0.97558225  0.14060888    -0.15320
C197        C  0.10950300  0.00212657  0.15433357     0.06830
C198        C  0.12262712  0.02873245  0.14517732    -0.15320
C199        C  0.14441620  0.02870957  0.12326312    -0.15320
C200        C  0.15348248  0.00206791  0.11010505     0.06830
C201        C  0.13979013  0.97555894  0.11869088    -0.15320
H202        H  0.10812131  0.95478095  0.14711936     0.10810
H203        H  0.11650409  0.04953356  0.15538565     0.10810
H204        H  0.15459218  0.04946642  0.11707894     0.10810
H205        H  0.14624258  0.95471297  0.10878806     0.10810
C206        C  0.37231304  0.02806977  0.14414986    -0.15320
C207        C  0.38435501  0.00137069  0.15444052     0.06830
C208        C  0.37460573  0.47461884  0.14200401    -0.15320
C209        C  0.35267092  0.47452160  0.12022134    -0.15320
C210        C  0.34010678  0.50118422  0.11046807     0.06830
C211        C  0.35040318  0.02797370  0.12236236    -0.15320
H212        H  0.37942657  0.04901362  0.15331055     0.10810
H213        H  0.38358989  0.45370107  0.14944445     0.10810
H214        H  0.34524126  0.45356327  0.11135109     0.10810
H215        H  0.34113875  0.04887731  0.11523030     0.10810
C216        C  0.02360516  0.12319391  0.35389265    -0.15320
C217        C  0.49683282  0.11238877  0.34245974     0.06830
C218        C  0.47008902  0.12316916  0.35396274    -0.15320
C219        C  0.47010577  0.14508789  0.37577421    -0.15320
C220        C  0.99688115  0.15661869  0.38647243     0.06830
C221        C  0.02362178  0.14510783  0.37569795    -0.15320
H222        H  0.04454326  0.11519329  0.34553462     0.10810
H223        H  0.44910787  0.11513423  0.34564451     0.10810
H224        H  0.44917202  0.15345154  0.38377835     0.10810
H225        H  0.04460672  0.15349601  0.38364949     0.10810
C226        C  0.02380994  0.37683268  0.35150133    -0.15320
C227        C  0.49707656  0.38787277  0.34023001     0.06830
C228        C  0.47029924  0.37721423  0.35178791    -0.15320
C229        C  0.47025527  0.35541595  0.37370790    -0.15320
C230        C  0.49698614  0.34387086  0.38447187     0.06830
C231        C  0.02376587  0.35503620  0.37341431    -0.15320
H232        H  0.04478539  0.38468772  0.34304879     0.10810
H233        H  0.44935744  0.38538209  0.34356802     0.10810
H234        H  0.44927931  0.34727101  0.38188257     0.10810
H235        H  0.04470787  0.34658980  0.38134694     0.10810
C236        C  0.47059409  0.37884461  0.14174489    -0.15320
C237        C  0.99736658  0.38975763  0.15306863     0.06830
C238        C  0.02411121  0.37906506  0.14148361    -0.15320
C239        C  0.02409069  0.35713655  0.11968306    -0.15320
C240        C  0.49731825  0.34551014  0.10908568     0.06830
C241        C  0.47057366  0.35692120  0.11995483    -0.15320
H242        H  0.44964844  0.38677463  0.15017655     0.10810
H243        H  0.04508362  0.38718411  0.14971552     0.10810
H244        H  0.04503307  0.34884712  0.11159557     0.10810
H245        H  0.44959808  0.34845699  0.11208670     0.10810
C246        C  0.02389070  0.12508250  0.14373870    -0.15320
C247        C  0.99709790  0.11421803  0.15507210     0.06830
C248        C  0.47038097  0.12502302  0.14353608    -0.15320
C249        C  0.47045093  0.14681276  0.12160868    -0.15320
C250        C  0.99723872  0.15821104  0.11080308     0.06830
C251        C  0.02396088  0.14687422  0.12180937    -0.15320
H252        H  0.04482652  0.11709983  0.15216203     0.10810
H253        H  0.44939713  0.11699474  0.15179619     0.10810
H254        H  0.44951333  0.15508021  0.11347344     0.10810
H255        H  0.04494271  0.15519466  0.11383641     0.10810
N256        N  0.06086021  0.48702870  0.71364539    -0.08100
N257        N  0.07766280  0.47704552  0.69196089    -0.60220
N258        N  0.06072267  0.01558290  0.78191943    -0.07780
N259        N  0.07755321  0.02575377  0.80348009    -0.62340
N260        N  0.06082564  0.48649943  0.78176188    -0.07370
N261        N  0.07774558  0.47627989  0.80325002    -0.60190
N262        N  0.06085943  0.01611104  0.71393942    -0.07050
N263        N  0.07773951  0.02652063  0.69252411    -0.62700
C264        C  0.08798262  0.00191263  0.67890342     0.94080
C265        C  0.08795182  0.50101858  0.81669388     0.93860
N266        N  0.48235598  0.06448310  0.78234045    -0.08280
N267        N  0.47213040  0.08096980  0.80416534    -0.60790
N268        N  0.01151105  0.06519539  0.71428209    -0.06400
N269        N  0.02172911  0.08221163  0.69288230    -0.62050
N270        N  0.48243989  0.06515708  0.71423046    -0.08310
N271        N  0.47228056  0.08215639  0.69278048    -0.61060
N272        N  0.01142298  0.06453738  0.78235060    -0.06040
N273        N  0.02157961  0.08105258  0.80417585    -0.62130
Mn274      Mn  0.03677468  0.04101916  0.74811743     1.18440
C275        C  0.49684010  0.09108233  0.81768172     0.96160
C276        C  0.99702944  0.09257691  0.67956666     0.96830
N277        N  0.01169430  0.43707339  0.78120447    -0.08330
N278        N  0.02185789  0.42002761  0.80260963    -0.64640
N279        N  0.48275732  0.43770116  0.71308398    -0.07130
N280        N  0.47261331  0.42115679  0.69127840    -0.65310
N281        N  0.01182494  0.43773866  0.71312648    -0.07840
N282        N  0.02206348  0.42121555  0.69133484    -0.64900
N283        N  0.48262303  0.43701617  0.78113454    -0.06730
N284        N  0.47240838  0.41994392  0.80249330    -0.65590
Mn285      Mn  0.03697721  0.46140672  0.74744718     1.10660
C286        C  0.49711456  0.40956362  0.81578920     0.97380
C287        C  0.99735976  0.41109696  0.67781184     0.97460
N288        N  0.43327510  0.01576962  0.71375588    -0.07850
N289        N  0.41624655  0.02604518  0.69238876    -0.63220
N290        N  0.43326131  0.48609428  0.78145794    -0.07160
N291        N  0.41629751  0.47565394  0.80278926    -0.59950
N292        N  0.43330615  0.01517691  0.78182979    -0.08470
N293        N  0.41646248  0.02512890  0.80349793    -0.62790
N294        N  0.43343475  0.48668650  0.71348087    -0.07460
N295        N  0.41656447  0.47657337  0.69191635    -0.59970
Mn296      Mn  0.45717489  0.04082740  0.74803711     1.20190
Mn297      Mn  0.45737466  0.46121188  0.74728447     1.10090
Cl298      Cl  0.99707339  0.00111445  0.74772159    -0.87940
C299        C  0.40605928  0.00135220  0.67885848     0.94390
C300        C  0.40606330  0.50023957  0.81645083     0.94190
N301        N  0.48273141  0.21727643  0.56163771    -0.08100
N302        N  0.47255289  0.19587631  0.57867542    -0.60220
N303        N  0.01176476  0.28534518  0.56126001    -0.07780
N304        N  0.02199031  0.30717071  0.57773608    -0.62340
N305        N  0.48269745  0.28533983  0.56132035    -0.07370
N306        N  0.47253854  0.30715659  0.57784542    -0.60190
N307        N  0.01180270  0.21726396  0.56159308    -0.07050
N308        N  0.02200028  0.19585099  0.57861607    -0.62700
C309        C  0.99727435  0.18260471  0.58904717     0.94080
C310        C  0.49728473  0.32066608  0.58786645     0.93860
N311        N  0.06074412  0.28515879  0.98288752    -0.08280
N312        N  0.07750197  0.30670335  0.97257500    -0.60790
N313        N  0.06095455  0.21714671  0.51215699    -0.06400
N314        N  0.07813351  0.19580540  0.52225695    -0.62050
N315        N  0.06102092  0.21730641  0.98306595    -0.08310
N316        N  0.07834635  0.19621498  0.97276693    -0.61060
N317        N  0.06077669  0.28527641  0.51197803    -0.06040
N318        N  0.07748858  0.30698540  0.52206438    -0.62130
Mn319      Mn  0.03699154  0.25122797  0.53742906     1.18440
C320        C  0.08770935  0.32022897  0.99724579     0.96160
C321        C  0.08876253  0.18287638  0.99742663     0.96830
N322        N  0.43333141  0.28514979  0.51230708    -0.08330
N323        N  0.41631881  0.30657635  0.52249959    -0.64640
N324        N  0.43327447  0.21721249  0.98336718    -0.07130
N325        N  0.41619706  0.19589428  0.97313453    -0.65310
N326        N  0.43345185  0.21704675  0.51245576    -0.07840
N327        N  0.41657776  0.19549316  0.52262477    -0.64900
N328        N  0.43328100  0.28510064  0.98321495    -0.06730
N329        N  0.41619446  0.30644450  0.97301569    -0.65590
Mn330      Mn  0.45739916  0.25118873  0.53761080     1.10660
C331        C  0.40584743  0.31975726  0.99775271     0.97380
C332        C  0.40602985  0.18243111  0.99783154     0.97460
N333        N  0.01151472  0.21685154  0.93416876    -0.07850
N334        N  0.02166747  0.19499703  0.91768736    -0.63220
N335        N  0.48242574  0.28494697  0.93380657    -0.07160
N336        N  0.47222949  0.30632598  0.91674534    -0.59950
N337        N  0.01149244  0.28490969  0.93373916    -0.08470
N338        N  0.02167572  0.30625662  0.91664103    -0.62790
N339        N  0.48244388  0.21686525  0.93421750    -0.07460
N340        N  0.47221623  0.19501376  0.91777455    -0.59970
Mn341      Mn  0.03682718  0.25105802  0.95780129     1.20190
Mn342      Mn  0.45721266  0.25105675  0.95798622     1.10090
Cl343      Cl  0.49710753  0.25112598  0.99771303    -0.87940
C344        C  0.99691829  0.18148228  0.90767837     0.94390
C345        C  0.49695597  0.31952167  0.90626256     0.94190
N346        N  0.28064261  0.43709616  0.98329296    -0.08100
N347        N  0.30203437  0.42006137  0.97311007    -0.60220
N348        N  0.21253131  0.43762763  0.51217353    -0.07780
N349        N  0.19080943  0.42092505  0.52223893    -0.62340
N350        N  0.21272934  0.43755998  0.98308613    -0.07370
N351        N  0.19122507  0.42076711  0.97275389    -0.60190
N352        N  0.28062071  0.43712843  0.51238523    -0.07050
N353        N  0.30204445  0.42013076  0.52259532    -0.62700
C354        C  0.31529309  0.40969995  0.99784953     0.94080
C355        C  0.17763766  0.41062651  0.99740016     0.93860
N356        N  0.21297901  0.01600971  0.56136744    -0.08280
N357        N  0.19156735  0.02641591  0.57824790    -0.60790
N358        N  0.28079494  0.48650042  0.56161993    -0.06400
N359        N  0.30226486  0.47630556  0.57857418    -0.62050
N360        N  0.28088569  0.01558488  0.56155695    -0.08310
N361        N  0.30235934  0.02578165  0.57847127    -0.61060
N362        N  0.21270632  0.48692655  0.56135286    -0.06040
N363        N  0.19103170  0.47694183  0.57816034    -0.62130
Mn364      Mn  0.24666157  0.46136347  0.53756722     1.18440
C365        C  0.17796193  0.00181566  0.58848468     0.96160
C366        C  0.31560393  0.50106230  0.58886548     0.96830
N367        N  0.21314016  0.48668644  0.93390716    -0.08330
N368        N  0.19154234  0.47654541  0.91710846    -0.64640
N369        N  0.28140424  0.01529349  0.93404629    -0.07130
N370        N  0.30306394  0.02525023  0.91720020    -0.65310
N371        N  0.28106695  0.48621141  0.93399407    -0.07840
N372        N  0.30240172  0.47577718  0.91703892    -0.64900
N373        N  0.21332965  0.01576982  0.93380151    -0.06730
N374        N  0.19185147  0.02601896  0.91690095    -0.65590
Mn375      Mn  0.24689696  0.46124717  0.95792754     1.10660
C376        C  0.17836426  0.00130499  0.90671370     0.97380
C377        C  0.31604045  0.50035653  0.90680656     0.97460
N378        N  0.28147582  0.06465082  0.51225489    -0.07850
N379        N  0.30298575  0.08156343  0.52244912    -0.63580
N380        N  0.21365699  0.06522283  0.98293655    -0.07160
N381        N  0.19258134  0.08255259  0.97262009    -0.59950
N382        N  0.21339262  0.06510681  0.51202800    -0.08470
N383        N  0.19200175  0.08222785  0.52210985    -0.62790
N384        N  0.28142557  0.06470365  0.98316366    -0.07460
N385        N  0.30276983  0.08175651  0.97295749    -0.59970
Mn386      Mn  0.24718099  0.04098206  0.53745665     1.20190
Mn387      Mn  0.24746566  0.04089000  0.95781933     1.10090
Cl388      Cl  0.24705572  0.00112209  0.99769892    -0.87940
C389        C  0.31614080  0.09201434  0.99767894     0.94390
C390        C  0.17915165  0.09290008  0.99728049     0.94190
C391        C  0.37417909  0.35647909  0.02446559    -0.15320
C392        C  0.38404382  0.34409388  0.99773187     0.06830
C393        C  0.37206059  0.35439075  0.97099694    -0.15320
C394        C  0.35012923  0.37615440  0.97102849    -0.15320
C395        C  0.33975466  0.38803957  0.99779190     0.06830
C396        C  0.35223051  0.37825452  0.02449731    -0.15320
H397        H  0.38310413  0.34903132  0.04540124     0.10810
H398        H  0.37925373  0.34526514  0.95005787     0.10810
H399        H  0.34093654  0.38329721  0.95010047     0.10810
H400        H  0.34473311  0.38710876  0.54544383     0.10810
C401        C  0.36937419  0.15077806  0.97141814    -0.15320
C402        C  0.38428875  0.15809669  0.99764677     0.06830
C403        C  0.37748037  0.14269060  0.52373995    -0.15320
C404        C  0.35568210  0.12074293  0.52369425    -0.15320
C405        C  0.34036991  0.11386945  0.99755740     0.06830
C406        C  0.34762861  0.12887662  0.97137170    -0.15320
H407        H  0.37408846  0.16239179  0.95101083     0.10810
H408        H  0.38878462  0.14780528  0.54421821     0.10810
H409        H  0.35060342  0.10936976  0.54414905     0.10810
H410        H  0.33608130  0.12412232  0.95094192     0.10810
C411        C  0.11769748  0.35849235  0.02366658    -0.15320
C412        C  0.10915293  0.34485182  0.99709672     0.06830
C413        C  0.12218388  0.35411248  0.97047459    -0.15320
C414        C  0.14396100  0.37601922  0.97051918    -0.15320
C415        C  0.15311293  0.38907260  0.99718049     0.06830
C416        C  0.13948978  0.38041642  0.02371123    -0.15320
H417        H  0.10787917  0.35189260  0.04449094     0.10810
H418        H  0.11602030  0.34398598  0.94966873     0.10810
H419        H  0.15408376  0.38226934  0.94972771     0.10810
H420        H  0.14600471  0.39023678  0.04455097     0.10810
C421        C  0.12627550  0.15208721  0.97112080    -0.15320
C422        C  0.11080203  0.15880635  0.99719248     0.06830
C423        C  0.11726688  0.14300342  0.02312891    -0.15320
C424        C  0.13918384  0.12118343  0.02308141    -0.15320
C425        C  0.15498343  0.11482851  0.99710409     0.06830
C426        C  0.14816053  0.13030699  0.97107485    -0.15320
H427        H  0.12185459  0.16405286  0.95084786     0.10810
H428        H  0.10554187  0.14765708  0.04347702     0.10810
H429        H  0.14391966  0.10944302  0.04341211     0.10810
H430        H  0.16011213  0.12597197  0.95078493     0.10810
C431        C  0.37664809  0.52638333  0.85532947    -0.15320
C432        C  0.38446604  0.49998697  0.84094301     0.06830
C433        C  0.37061656  0.47350848  0.84937434    -0.15320
C434        C  0.34881467  0.47354348  0.87126939    -0.15320
C435        C  0.34046030  0.50005610  0.88513126     0.06830
C436        C  0.35483371  0.52641886  0.87723188    -0.15320
H437        H  0.38710489  0.54708452  0.84937593     0.10810
H438        H  0.37618033  0.45284372  0.83862010     0.10810
H439        H  0.33806434  0.45289716  0.87689396     0.10810
H440        H  0.34893742  0.54713939  0.88768943     0.10810
C441        C  0.12085815  0.02792234  0.85208286    -0.15320
C442        C  0.10957855  0.50110136  0.84118141     0.06830
C443        C  0.12003523  0.47439602  0.85306087    -0.15320
C444        C  0.14193586  0.47448475  0.87487162    -0.15320
C445        C  0.15379462  0.00128752  0.88518579     0.06830
C446        C  0.14276954  0.02801037  0.87387446    -0.15320
H447        H  0.11316000  0.04884490  0.84338127     0.10810
H448        H  0.11165783  0.45339310  0.84514286     0.10810
H449        H  0.14994318  0.45355700  0.88327333     0.10810
H450        H  0.15145551  0.04900815  0.88147149     0.10810
C451        C  0.11799411  0.97558227  0.64060891    -0.15320
C452        C  0.10950299  0.00212655  0.65433356     0.06830
C453        C  0.12262705  0.02873249  0.64517727    -0.15320
C454        C  0.14441613  0.02870955  0.62326306    -0.15320
C455        C  0.15348247  0.00206793  0.61010503     0.06830
C456        C  0.13979018  0.97555890  0.61869090    -0.15320
H457        H  0.10812133  0.95478078  0.64711947     0.10810
H458        H  0.11650403  0.04953342  0.65538549     0.10810
H459        H  0.15459214  0.04946659  0.61707880     0.10810
H460        H  0.14624262  0.95471311  0.60878820     0.10810
C461        C  0.37231304  0.02806977  0.64414986    -0.15320
C462        C  0.38435501  0.00137068  0.65444053     0.06830
C463        C  0.37460573  0.47461883  0.64200402    -0.15320
C464        C  0.35267092  0.47452160  0.62022135    -0.15320
C465        C  0.34010678  0.50118422  0.61046807     0.06830
C466        C  0.35040318  0.02797370  0.62236236    -0.15320
H467        H  0.37942657  0.04901361  0.65331055     0.10810
H468        H  0.38358987  0.45370110  0.64944445     0.10810
H469        H  0.34524124  0.45356323  0.61135109     0.10810
H470        H  0.34113875  0.04887731  0.61523030     0.10810
C471        C  0.02360516  0.12319389  0.85389266    -0.15320
C472        C  0.49683283  0.11238876  0.84245975     0.06830
C473        C  0.47008902  0.12316914  0.85396275    -0.15320
C474        C  0.47010578  0.14508788  0.87577422    -0.15320
C475        C  0.99688115  0.15661868  0.88647244     0.06830
C476        C  0.02362179  0.14510782  0.87569796    -0.15320
H477        H  0.04454328  0.11519327  0.84553462     0.10810
H478        H  0.44910791  0.11513423  0.84564453     0.10810
H479        H  0.44917199  0.15345154  0.88377837     0.10810
H480        H  0.04460671  0.15349598  0.88364949     0.10810
C481        C  0.02380996  0.37683268  0.85150132    -0.15320
C482        C  0.49707656  0.38787277  0.84023000     0.06830
C483        C  0.47029924  0.37721422  0.85178790    -0.15320
C484        C  0.47025528  0.35541594  0.87370790    -0.15320
C485        C  0.49698614  0.34387085  0.88447186     0.06830
C486        C  0.02376587  0.35503620  0.87341430    -0.15320
H487        H  0.04478535  0.38468770  0.84304880     0.10810
H488        H  0.44935749  0.38538206  0.84356804     0.10810
H489        H  0.44927928  0.34727098  0.88188258     0.10810
H490        H  0.04470793  0.34658978  0.88134694     0.10810
C491        C  0.47059409  0.37884461  0.64174489    -0.15320
C492        C  0.99736658  0.38975764  0.65306864     0.06830
C493        C  0.02411119  0.37906506  0.64148361    -0.15320
C494        C  0.02409070  0.35713655  0.61968306    -0.15320
C495        C  0.49731824  0.34551014  0.60908569     0.06830
C496        C  0.47057363  0.35692120  0.61995484    -0.15320
H497        H  0.44964837  0.38677465  0.65017658     0.10810
H498        H  0.04508369  0.38718415  0.64971555     0.10810
H499        H  0.04503297  0.34884715  0.61159559     0.10810
H500        H  0.44959812  0.34845701  0.61208672     0.10810
C501        C  0.02389069  0.12508250  0.64373870    -0.15320
C502        C  0.99709789  0.11421802  0.65507209     0.06830
C503        C  0.47038098  0.12502302  0.64353608    -0.15320
C504        C  0.47045092  0.14681276  0.62160868    -0.15320
C505        C  0.99723872  0.15821105  0.61080309     0.06830
C506        C  0.02396087  0.14687422  0.62180937    -0.15320
H507        H  0.04482652  0.11709983  0.65216202     0.10810
H508        H  0.44939707  0.11699473  0.65179621     0.10810
H509        H  0.44951337  0.15508019  0.61347346     0.10810
H510        H  0.04494271  0.15519466  0.61383641     0.10810
N511        N  0.06086020  0.98702870  0.21364540    -0.08100
N512        N  0.07766280  0.97704552  0.19196090    -0.60220
N513        N  0.06072266  0.51558289  0.28191944    -0.07780
N514        N  0.07755320  0.52575376  0.30348010    -0.62340
N515        N  0.06082564  0.98649942  0.28176188    -0.07370
N516        N  0.07774557  0.97627987  0.30325001    -0.60190
N517        N  0.06085943  0.51611105  0.21393943    -0.07050
N518        N  0.07773952  0.52652063  0.19252412    -0.62700
C519        C  0.08798263  0.50191263  0.17890343     0.94080
C520        C  0.08795182  0.00101857  0.31669388     0.93860
N521        N  0.48235598  0.56448310  0.28234045    -0.08280
N522        N  0.47213040  0.58096981  0.30416534    -0.60790
N523        N  0.01151105  0.56519539  0.21428210    -0.06400
N524        N  0.02172912  0.58221163  0.19288231    -0.62050
N525        N  0.48243989  0.56515708  0.21423046    -0.08310
N526        N  0.47228057  0.58215639  0.19278048    -0.61060
N527        N  0.01142298  0.56453738  0.28235060    -0.06040
N528        N  0.02157960  0.58105258  0.30417585    -0.62130
Mn529      Mn  0.03677468  0.54101915  0.24811744     1.18440
C530        C  0.49684010  0.59108233  0.31768171     0.96160
C531        C  0.99702945  0.59257691  0.17956666     0.96830
N532        N  0.01169430  0.93707338  0.28120447    -0.08330
N533        N  0.02185788  0.92002761  0.30260963    -0.64640
N534        N  0.48275733  0.93770116  0.21308397    -0.07130
N535        N  0.47261332  0.92115680  0.19127839    -0.65310
N536        N  0.01182494  0.93773866  0.21312647    -0.07840
N537        N  0.02206349  0.92121556  0.19133484    -0.64900
N538        N  0.48262303  0.93701617  0.28113453    -0.06730
N539        N  0.47240838  0.91994392  0.30249329    -0.65590
Mn540      Mn  0.03697721  0.96140672  0.24744718     1.10660
C541        C  0.49711455  0.90956363  0.31578920     0.97380
C542        C  0.99735977  0.91109696  0.17781183     0.97460
N543        N  0.43327511  0.51576962  0.21375588    -0.07850
N544        N  0.41624656  0.52604519  0.19238875    -0.63220
N545        N  0.43326131  0.98609427  0.28145793    -0.07160
N546        N  0.41629750  0.97565392  0.30278925    -0.59950
N547        N  0.43330615  0.51517690  0.28182978    -0.08470
N548        N  0.41646248  0.52512889  0.30349793    -0.62790
N549        N  0.43343475  0.98668650  0.21348086    -0.07460
N550        N  0.41656447  0.97657338  0.19191634    -0.59970
Mn551      Mn  0.45717490  0.54082739  0.24803711     1.20190
Mn552      Mn  0.45737466  0.96121188  0.24728446     1.10090
Cl553      Cl  0.99707340  0.50111445  0.24772158    -0.87940
C554        C  0.40605929  0.50135220  0.17885847     0.94390
C555        C  0.40606329  0.00023956  0.31645083     0.94190
N556        N  0.48273142  0.71727643  0.06163771    -0.08100
N557        N  0.47255290  0.69587631  0.07867542    -0.60220
N558        N  0.01176477  0.78534518  0.06126001    -0.07780
N559        N  0.02199032  0.80717070  0.07773608    -0.62340
N560        N  0.48269746  0.78533983  0.06132035    -0.07370
N561        N  0.47253855  0.80715660  0.07784542    -0.60190
N562        N  0.01180270  0.71726395  0.06159308    -0.07050
N563        N  0.02200029  0.69585099  0.07861607    -0.62700
C564        C  0.99727436  0.68260470  0.08904717     0.94080
C565        C  0.49728475  0.82066608  0.08786644     0.93860
N566        N  0.06074411  0.78515879  0.48288751    -0.08280
N567        N  0.07750195  0.80670336  0.47257499    -0.60790
N568        N  0.06095455  0.71714670  0.01215700    -0.06400
N569        N  0.07813352  0.69580539  0.02225696    -0.62050
N570        N  0.06102090  0.71730640  0.48306595    -0.08310
N571        N  0.07834630  0.69621495  0.47276692    -0.61060
N572        N  0.06077669  0.78527640  0.01197803    -0.06040
N573        N  0.07748859  0.80698539  0.02206438    -0.62130
Mn574      Mn  0.03699154  0.75122796  0.03742906     1.18440
C575        C  0.08770933  0.82022898  0.49724580     0.96160
C576        C  0.08876249  0.68287636  0.49742665     0.96830
N577        N  0.43333142  0.78514979  0.01230708    -0.08330
N578        N  0.41631881  0.80657635  0.02249958    -0.64640
N579        N  0.43327447  0.71721248  0.48336718    -0.07130
N580        N  0.41619708  0.69589426  0.47313452    -0.65310
N581        N  0.43345187  0.71704675  0.01245576    -0.07840
N582        N  0.41657777  0.69549316  0.02262477    -0.64900
N583        N  0.43328099  0.78510063  0.48321495    -0.06730
N584        N  0.41619445  0.80644450  0.47301569    -0.65590
Mn585      Mn  0.45739917  0.75118873  0.03761080     1.10660
C586        C  0.40584743  0.81975726  0.49775271     0.97380
C587        C  0.40602987  0.68243109  0.49783154     0.97460
N588        N  0.01151471  0.71685155  0.43416876    -0.07850
N589        N  0.02166746  0.69499704  0.41768735    -0.63220
N590        N  0.48242573  0.78494697  0.43380656    -0.07160
N591        N  0.47222948  0.80632599  0.41674534    -0.59950
N592        N  0.01149243  0.78490970  0.43373916    -0.08470
N593        N  0.02167571  0.80625663  0.41664103    -0.62790
N594        N  0.48244387  0.71686525  0.43421750    -0.07460
N595        N  0.47221622  0.69501377  0.41777454    -0.59970
Mn596      Mn  0.03682716  0.75105803  0.45780129     1.20190
Mn597      Mn  0.45721266  0.75105675  0.45798622     1.10090
Cl598      Cl  0.49710753  0.75112598  0.49771302    -0.87940
C599        C  0.99691828  0.68148229  0.40767836     0.94390
C600        C  0.49695597  0.81952168  0.40626257     0.94190
N601        N  0.28064261  0.93709615  0.48329296    -0.08100
N602        N  0.30203437  0.92006136  0.47311007    -0.60220
N603        N  0.21253132  0.93762763  0.01217353    -0.07780
N604        N  0.19080944  0.92092504  0.02223893    -0.62340
N605        N  0.21272933  0.93755998  0.48308614    -0.07370
N606        N  0.19122506  0.92076711  0.47275390    -0.60190
N607        N  0.28062071  0.93712843  0.01238522    -0.07050
N608        N  0.30204445  0.92013076  0.02259532    -0.62700
C609        C  0.31529309  0.90969995  0.49784954     0.94080
C610        C  0.17763764  0.91062652  0.49740015     0.93860
N611        N  0.21297902  0.51600971  0.06136744    -0.08280
N612        N  0.19156735  0.52641591  0.07824791    -0.60790
N613        N  0.28079493  0.98650042  0.06161993    -0.06400
N614        N  0.30226486  0.97630557  0.07857418    -0.62050
N615        N  0.28088569  0.51558488  0.06155696    -0.08310
N616        N  0.30235934  0.52578165  0.07847127    -0.61060
N617        N  0.21270632  0.98692654  0.06135286    -0.06040
N618        N  0.19103170  0.97694182  0.07816034    -0.62130
Mn619      Mn  0.24666157  0.96136347  0.03756722     1.18440
C620        C  0.17796193  0.50181567  0.08848469     0.96160
C621        C  0.31560393  0.00106230  0.08886548     0.96830
N622        N  0.21314015  0.98668642  0.43390716    -0.08330
N623        N  0.19154234  0.97654539  0.41710845    -0.64640
N624        N  0.28140424  0.51529349  0.43404628    -0.07130
N625        N  0.30306394  0.52525024  0.41720020    -0.65310
N626        N  0.28106694  0.98621139  0.43399406    -0.07840
N627        N  0.30240172  0.97577717  0.41703892    -0.64900
N628        N  0.21332965  0.51576981  0.43380151    -0.06730
N629        N  0.19185147  0.52601895  0.41690095    -0.65590
Mn630      Mn  0.24689695  0.96124715  0.45792754     1.10660
C631        C  0.17836426  0.50130497  0.40671370     0.97380
C632        C  0.31604045  0.00035650  0.40680655     0.97460
N633        N  0.28147583  0.56465083  0.01225490    -0.07850
N634        N  0.30298575  0.58156345  0.02244913    -0.63580
N635        N  0.21365698  0.56522281  0.48293655    -0.07160
N636        N  0.19258129  0.58255253  0.47262010    -0.59950
N637        N  0.21339262  0.56510681  0.01202800    -0.08470
N638        N  0.19200175  0.58222786  0.02210984    -0.62790
N639        N  0.28142558  0.56470365  0.48316365    -0.07460
N640        N  0.30276985  0.58175648  0.47295747    -0.59970
Mn641      Mn  0.24718099  0.54098206  0.03745666     1.20190
Mn642      Mn  0.24746565  0.54088999  0.45781932     1.10090
Cl643      Cl  0.24705572  0.50112208  0.49769892    -0.87940
C644        C  0.31614083  0.59201431  0.49767892     0.94390
C645        C  0.17915161  0.59290004  0.49728048     0.94190
C646        C  0.37417909  0.85647910  0.52446558    -0.15320
C647        C  0.38404382  0.84409388  0.49773187     0.06830
C648        C  0.37206059  0.85439075  0.47099693    -0.15320
C649        C  0.35012924  0.87615440  0.47102850    -0.15320
C650        C  0.33975466  0.88803957  0.49779189     0.06830
C651        C  0.35223051  0.87825453  0.52449733    -0.15320
H652        H  0.38310416  0.84903131  0.54540129     0.10810
H653        H  0.37925372  0.84526516  0.45005793     0.10810
H654        H  0.34093652  0.88329722  0.45010042     0.10810
H655        H  0.34473304  0.88710883  0.04544402     0.10810
C656        C  0.36937440  0.65077784  0.47141812    -0.15320
C657        C  0.38428878  0.65809665  0.49764675     0.06830
C658        C  0.37748053  0.64269046  0.02373991    -0.15320
C659        C  0.35568226  0.62074281  0.02369417    -0.15320
C660        C  0.34036995  0.61386940  0.49755741     0.06830
C661        C  0.34762881  0.62887640  0.47137160    -0.15320
H662        H  0.37408883  0.66239152  0.45101058     0.10810
H663        H  0.38878489  0.64780497  0.04421801     0.10810
H664        H  0.35060371  0.60936941  0.04414904     0.10810
H665        H  0.33608172  0.62412200  0.45094195     0.10810
C666        C  0.11769745  0.85849233  0.52366668    -0.15320
C667        C  0.10915291  0.84485184  0.49709667     0.06830
C668        C  0.12218384  0.85411256  0.47047468    -0.15320
C669        C  0.14396098  0.87601928  0.47051909    -0.15320
C670        C  0.15311291  0.88907262  0.49718054     0.06830
C671        C  0.13948976  0.88041638  0.52371114    -0.15320
H672        H  0.10787935  0.85189268  0.54449055     0.10810
H673        H  0.11602013  0.84398587  0.44966832     0.10810
H674        H  0.15408351  0.88226930  0.44972810     0.10810
H675        H  0.14600484  0.89023692  0.54455138     0.10810
C676        C  0.12627495  0.65208662  0.47112074    -0.15320
C677        C  0.11080196  0.65880629  0.49719246     0.06830
C678        C  0.11726722  0.64300383  0.52312919    -0.15320
C679        C  0.13918421  0.62118387  0.52308151    -0.15320
C680        C  0.15498335  0.61482844  0.49710416     0.06830
C681        C  0.14816002  0.63030642  0.47107461    -0.15320
H682        H  0.12185359  0.66405214  0.45084717     0.10810
H683        H  0.10554286  0.64765778  0.54347693     0.10810
H684        H  0.14392050  0.60944359  0.54341284     0.10810
H685        H  0.16011097  0.62597110  0.45078505     0.10810
C686        C  0.37664814  0.02638340  0.35532947    -0.15320
C687        C  0.38446603  0.99998691  0.34094300     0.06830
C688        C  0.37061653  0.97350855  0.34937436    -0.15320
C689        C  0.34881462  0.97354338  0.37126938    -0.15320
C690        C  0.34046030  0.00005612  0.38513126     0.06830
C691        C  0.35483374  0.02641875  0.37723186    -0.15320
H692        H  0.38710474  0.04708410  0.34937605     0.10810
H693        H  0.37618038  0.95284332  0.33861987     0.10810
H694        H  0.33806450  0.95289754  0.37689383     0.10810
H695        H  0.34893735  0.04713976  0.38768964     0.10810
C696        C  0.12085814  0.52792234  0.35208285    -0.15320
C697        C  0.10957855  0.00110133  0.34118141     0.06830
C698        C  0.12003523  0.97439603  0.35306087    -0.15320
C699        C  0.14193586  0.97448470  0.37487162    -0.15320
C700        C  0.15379462  0.50128751  0.38518578     0.06830
C701        C  0.14276953  0.52801033  0.37387445    -0.15320
H702        H  0.11316003  0.54884479  0.34338131     0.10810
H703        H  0.11165777  0.95339294  0.34514281     0.10810
H704        H  0.14994312  0.95355712  0.38327327     0.10810
H705        H  0.15145554  0.54900823  0.38147152     0.10810
C706        C  0.11799405  0.47558226  0.14060887    -0.15320
C707        C  0.10950300  0.50212657  0.15433357     0.06830
C708        C  0.12262713  0.52873245  0.14517733    -0.15320
C709        C  0.14441621  0.52870958  0.12326313    -0.15320
C710        C  0.15348248  0.50206792  0.11010505     0.06830
C711        C  0.13979013  0.47555895  0.11869087    -0.15320
H712        H  0.10812130  0.45478096  0.14711934     0.10810
H713        H  0.11650411  0.54953357  0.15538567     0.10810
H714        H  0.15459219  0.54946643  0.11707896     0.10810
H715        H  0.14624257  0.45471298  0.10878804     0.10810
C716        C  0.37231307  0.52806978  0.14414984    -0.15320
C717        C  0.38435502  0.50137068  0.15444052     0.06830
C718        C  0.37460575  0.97461884  0.14200399    -0.15320
C719        C  0.35267093  0.97452161  0.12022133    -0.15320
C720        C  0.34010678  0.00118422  0.11046808     0.06830
C721        C  0.35040321  0.52797369  0.12236234    -0.15320
H722        H  0.37942661  0.54901359  0.15331050     0.10810
H723        H  0.38358991  0.95370111  0.14944441     0.10810
H724        H  0.34524127  0.95356324  0.11135105     0.10810
H725        H  0.34113878  0.54887734  0.11523025     0.10810
C726        C  0.02360515  0.62319391  0.35389265    -0.15320
C727        C  0.49683283  0.61238877  0.34245974     0.06830
C728        C  0.47008902  0.62316915  0.35396273    -0.15320
C729        C  0.47010578  0.64508789  0.37577421    -0.15320
C730        C  0.99688114  0.65661869  0.38647242     0.06830
C731        C  0.02362180  0.64510783  0.37569795    -0.15320
H732        H  0.04454332  0.61519327  0.34553460     0.10810
H733        H  0.44910789  0.61513423  0.34564451     0.10810
H734        H  0.44917200  0.65345154  0.38377836     0.10810
H735        H  0.04460666  0.65349598  0.38364947     0.10810
C736        C  0.02380994  0.87683268  0.35150133    -0.15320
C737        C  0.49707656  0.88787277  0.34023001     0.06830
C738        C  0.47029922  0.87721423  0.35178790    -0.15320
C739        C  0.47025528  0.85541595  0.37370790    -0.15320
C740        C  0.49698613  0.84387086  0.38447187     0.06830
C741        C  0.02376587  0.85503621  0.37341431    -0.15320
H742        H  0.04478538  0.88468772  0.34304879     0.10810
H743        H  0.44935753  0.88538205  0.34356805     0.10810
H744        H  0.44927922  0.84727097  0.38188260     0.10810
H745        H  0.04470787  0.84658981  0.38134694     0.10810
C746        C  0.47059407  0.87884462  0.14174489    -0.15320
C747        C  0.99736659  0.88975764  0.15306863     0.06830
C748        C  0.02411120  0.87906506  0.14148360    -0.15320
C749        C  0.02409070  0.85713655  0.11968306    -0.15320
C750        C  0.49731824  0.84551015  0.10908568     0.06830
C751        C  0.47057367  0.85692121  0.11995483    -0.15320
H752        H  0.44964849  0.88677461  0.15017652     0.10810
H753        H  0.04508368  0.88718414  0.14971554     0.10810
H754        H  0.04503301  0.84884714  0.11159559     0.10810
H755        H  0.44959802  0.84845698  0.11208668     0.10810
C756        C  0.02389070  0.62508249  0.14373871    -0.15320
C757        C  0.99709790  0.61421802  0.15507210     0.06830
C758        C  0.47038099  0.62502302  0.14353608    -0.15320
C759        C  0.47045093  0.64681276  0.12160868    -0.15320
C760        C  0.99723873  0.65821105  0.11080309     0.06830
C761        C  0.02396088  0.64687422  0.12180938    -0.15320
H762        H  0.04482652  0.61709983  0.15216203     0.10810
H763        H  0.44939708  0.61699472  0.15179621     0.10810
H764        H  0.44951338  0.65508019  0.11347346     0.10810
H765        H  0.04494272  0.65519466  0.11383641     0.10810
N766        N  0.06086020  0.98702869  0.71364539    -0.08100
N767        N  0.07766280  0.97704551  0.69196089    -0.60220
N768        N  0.06072267  0.51558291  0.78191944    -0.07780
N769        N  0.07755321  0.52575377  0.80348010    -0.62340
N770        N  0.06082564  0.98649943  0.78176188    -0.07370
N771        N  0.07774557  0.97627988  0.80325002    -0.60190
N772        N  0.06085943  0.51611105  0.71393943    -0.07050
N773        N  0.07773952  0.52652063  0.69252412    -0.62700
C774        C  0.08798263  0.50191264  0.67890343     0.94080
C775        C  0.08795182  0.00101858  0.81669387     0.93860
N776        N  0.48235598  0.56448310  0.78234045    -0.08280
N777        N  0.47213040  0.58096981  0.80416534    -0.60790
N778        N  0.01151105  0.56519540  0.71428210    -0.06400
N779        N  0.02172911  0.58221163  0.69288230    -0.62050
N780        N  0.48243989  0.56515708  0.71423046    -0.08310
N781        N  0.47228057  0.58215639  0.69278048    -0.61060
N782        N  0.01142299  0.56453739  0.78235060    -0.06040
N783        N  0.02157961  0.58105258  0.80417585    -0.62130
Mn784      Mn  0.03677468  0.54101916  0.74811744     1.18440
C785        C  0.49684010  0.59108233  0.81768172     0.96160
C786        C  0.99702944  0.59257692  0.67956666     0.96830
N787        N  0.01169430  0.93707338  0.78120447    -0.08330
N788        N  0.02185788  0.92002761  0.80260963    -0.64640
N789        N  0.48275732  0.93770116  0.71308397    -0.07130
N790        N  0.47261331  0.92115679  0.69127840    -0.65310
N791        N  0.01182494  0.93773866  0.71312648    -0.07840
N792        N  0.02206348  0.92121555  0.69133485    -0.64900
N793        N  0.48262303  0.93701617  0.78113454    -0.06730
N794        N  0.47240838  0.91994392  0.80249330    -0.65590
Mn795      Mn  0.03697721  0.96140671  0.74744718     1.10660
C796        C  0.49711456  0.90956362  0.81578920     0.97380
C797        C  0.99735976  0.91109695  0.67781184     0.97460
N798        N  0.43327511  0.51576962  0.71375588    -0.07850
N799        N  0.41624656  0.52604519  0.69238875    -0.63220
N800        N  0.43326131  0.98609427  0.78145794    -0.07160
N801        N  0.41629750  0.97565393  0.80278926    -0.59950
N802        N  0.43330615  0.51517692  0.78182979    -0.08470
N803        N  0.41646248  0.52512891  0.80349793    -0.62790
N804        N  0.43343475  0.98668649  0.71348086    -0.07460
N805        N  0.41656446  0.97657337  0.69191635    -0.59970
Mn806      Mn  0.45717490  0.54082740  0.74803711     1.20190
Mn807      Mn  0.45737466  0.96121188  0.74728446     1.10090
Cl808      Cl  0.99707340  0.50111445  0.74772159    -0.87940
C809        C  0.40605929  0.50135220  0.67885847     0.94390
C810        C  0.40606329  0.00023956  0.81645083     0.94190
N811        N  0.48273142  0.71727643  0.56163770    -0.08100
N812        N  0.47255290  0.69587631  0.57867542    -0.60220
N813        N  0.01176476  0.78534518  0.56126000    -0.07780
N814        N  0.02199031  0.80717071  0.57773608    -0.62340
N815        N  0.48269746  0.78533983  0.56132035    -0.07370
N816        N  0.47253855  0.80715659  0.57784542    -0.60190
N817        N  0.01180270  0.71726396  0.56159308    -0.07050
N818        N  0.02200028  0.69585100  0.57861607    -0.62700
C819        C  0.99727436  0.68260471  0.58904717     0.94080
C820        C  0.49728474  0.82066608  0.58786644     0.93860
N821        N  0.06074411  0.78515879  0.98288752    -0.08280
N822        N  0.07750196  0.80670335  0.97257500    -0.60790
N823        N  0.06095455  0.71714671  0.51215700    -0.06400
N824        N  0.07813351  0.69580540  0.52225696    -0.62050
N825        N  0.06102093  0.71730641  0.98306595    -0.08310
N826        N  0.07834635  0.69621499  0.97276692    -0.61060
N827        N  0.06077668  0.78527641  0.51197802    -0.06040
N828        N  0.07748858  0.80698540  0.52206437    -0.62130
Mn829      Mn  0.03699154  0.75122797  0.53742906     1.18440
C830        C  0.08770935  0.82022897  0.99724580     0.96160
C831        C  0.08876253  0.68287639  0.99742664     0.96830
N832        N  0.43333141  0.78514979  0.51230708    -0.08330
N833        N  0.41631881  0.80657635  0.52249958    -0.64640
N834        N  0.43327447  0.71721249  0.98336718    -0.07130
N835        N  0.41619705  0.69589429  0.97313453    -0.65310
N836        N  0.43345186  0.71704674  0.51245576    -0.07840
N837        N  0.41657777  0.69549315  0.52262476    -0.64900
N838        N  0.43328100  0.78510064  0.98321495    -0.06730
N839        N  0.41619446  0.80644450  0.97301568    -0.65590
Mn840      Mn  0.45739917  0.75118873  0.53761080     1.10660
C841        C  0.40584743  0.81975726  0.99775271     0.97380
C842        C  0.40602985  0.68243112  0.99783154     0.97460
N843        N  0.01151472  0.71685155  0.93416877    -0.07850
N844        N  0.02166747  0.69499703  0.91768736    -0.63220
N845        N  0.48242574  0.78494697  0.93380657    -0.07160
N846        N  0.47222949  0.80632598  0.91674534    -0.59950
N847        N  0.01149244  0.78490969  0.93373917    -0.08470
N848        N  0.02167572  0.80625663  0.91664103    -0.62790
N849        N  0.48244388  0.71686525  0.93421751    -0.07460
N850        N  0.47221623  0.69501376  0.91777456    -0.59970
Mn851      Mn  0.03682717  0.75105803  0.95780130     1.20190
Mn852      Mn  0.45721266  0.75105675  0.95798622     1.10090
Cl853      Cl  0.49710753  0.75112598  0.99771303    -0.87940
C854        C  0.99691829  0.68148228  0.90767837     0.94390
C855        C  0.49695597  0.81952168  0.90626256     0.94190
N856        N  0.28064261  0.93709615  0.98329296    -0.08100
N857        N  0.30203437  0.92006136  0.97311008    -0.60220
N858        N  0.21253131  0.93762762  0.51217353    -0.07780
N859        N  0.19080943  0.92092504  0.52223893    -0.62340
N860        N  0.21272934  0.93755998  0.98308614    -0.07370
N861        N  0.19122506  0.92076711  0.97275389    -0.60190
N862        N  0.28062071  0.93712843  0.51238522    -0.07050
N863        N  0.30204446  0.92013076  0.52259531    -0.62700
C864        C  0.31529309  0.90969995  0.99784953     0.94080
C865        C  0.17763765  0.91062651  0.99740016     0.93860
N866        N  0.21297902  0.51600971  0.56136744    -0.08280
N867        N  0.19156736  0.52641591  0.57824791    -0.60790
N868        N  0.28079493  0.98650041  0.56161993    -0.06400
N869        N  0.30226486  0.97630556  0.57857418    -0.62050
N870        N  0.28088570  0.51558488  0.56155695    -0.08310
N871        N  0.30235935  0.52578165  0.57847127    -0.61060
N872        N  0.21270632  0.98692655  0.56135286    -0.06040
N873        N  0.19103170  0.97694182  0.57816033    -0.62130
Mn874      Mn  0.24666157  0.96136347  0.53756722     1.18440
C875        C  0.17796193  0.50181567  0.58848469     0.96160
C876        C  0.31560393  0.00106230  0.58886548     0.96830
N877        N  0.21314016  0.98668643  0.93390716    -0.08330
N878        N  0.19154234  0.97654540  0.91710846    -0.64640
N879        N  0.28140424  0.51529350  0.93404629    -0.07130
N880        N  0.30306394  0.52525024  0.91720020    -0.65310
N881        N  0.28106695  0.98621140  0.93399406    -0.07840
N882        N  0.30240172  0.97577717  0.91703891    -0.64900
N883        N  0.21332965  0.51576983  0.93380151    -0.06730
N884        N  0.19185147  0.52601897  0.91690095    -0.65590
Mn885      Mn  0.24689696  0.96124716  0.95792754     1.10660
C886        C  0.17836426  0.50130500  0.90671370     0.97380
C887        C  0.31604045  0.00035652  0.90680655     0.97460
N888        N  0.28147583  0.56465082  0.51225489    -0.07850
N889        N  0.30298576  0.58156343  0.52244912    -0.63580
N890        N  0.21365699  0.56522283  0.98293655    -0.07160
N891        N  0.19258134  0.58255259  0.97262011    -0.59950
N892        N  0.21339263  0.56510681  0.51202799    -0.08470
N893        N  0.19200176  0.58222785  0.52210984    -0.62790
N894        N  0.28142557  0.56470366  0.98316367    -0.07460
N895        N  0.30276983  0.58175652  0.97295749    -0.59970
Mn896      Mn  0.24718100  0.54098206  0.53745665     1.20190
Mn897      Mn  0.24746566  0.54089000  0.95781933     1.10090
Cl898      Cl  0.24705572  0.50112209  0.99769892    -0.87940
C899        C  0.31614080  0.59201435  0.99767894     0.94390
C900        C  0.17915165  0.59290008  0.99728048     0.94190
C901        C  0.37417910  0.85647908  0.02446561    -0.15320
C902        C  0.38404382  0.84409388  0.99773185     0.06830
C903        C  0.37206058  0.85439076  0.97099696    -0.15320
C904        C  0.35012922  0.87615441  0.97102847    -0.15320
C905        C  0.33975466  0.88803957  0.99779191     0.06830
C906        C  0.35223052  0.87825451  0.02449729    -0.15320
H907        H  0.38310410  0.84903136  0.04540114     0.10810
H908        H  0.37925376  0.84526510  0.95005777     0.10810
H909        H  0.34093658  0.88329717  0.95010057     0.10810
H910        H  0.34473310  0.88710878  0.54544387     0.10810
C911        C  0.36937415  0.65077809  0.97141819    -0.15320
C912        C  0.38428874  0.65809670  0.99764676     0.06830
C913        C  0.37748039  0.64269060  0.52373996    -0.15320
C914        C  0.35568212  0.62074294  0.52369423    -0.15320
C915        C  0.34036991  0.61386946  0.99755742     0.06830
C916        C  0.34762856  0.62887666  0.97137167    -0.15320
H917        H  0.37408843  0.66239193  0.95101070     0.10810
H918        H  0.38878458  0.64780526  0.54421812     0.10810
H919        H  0.35060341  0.60936970  0.54414914     0.10810
H920        H  0.33608131  0.62412241  0.95094208     0.10810
C921        C  0.11769747  0.85849235  0.02366660    -0.15320
C922        C  0.10915292  0.84485183  0.99709671     0.06830
C923        C  0.12218387  0.85411249  0.97047461    -0.15320
C924        C  0.14396100  0.87601923  0.97051916    -0.15320
C925        C  0.15311293  0.88907261  0.99718050     0.06830
C926        C  0.13948977  0.88041642  0.02371122    -0.15320
H927        H  0.10787919  0.85189262  0.04449088     0.10810
H928        H  0.11602027  0.84398596  0.94966867     0.10810
H929        H  0.15408372  0.88226933  0.94972777     0.10810
H930        H  0.14600472  0.89023681  0.04455104     0.10810
C931        C  0.12627552  0.65208718  0.97112091    -0.15320
C932        C  0.11080204  0.65880636  0.99719243     0.06830
C933        C  0.11726682  0.64300343  0.02312902    -0.15320
C934        C  0.13918381  0.62118347  0.02308131    -0.15320
C935        C  0.15498342  0.61482851  0.99710415     0.06830
C936        C  0.14816059  0.63030700  0.97107475    -0.15320
H937        H  0.12185454  0.66405314  0.95084740     0.10810
H938        H  0.10554210  0.64765698  0.04347654     0.10810
H939        H  0.14391973  0.60944275  0.04341259     0.10810
H940        H  0.16011189  0.62597208  0.95078542     0.10810
C941        C  0.37664813  0.02638333  0.85532950    -0.15320
C942        C  0.38446602  0.99998695  0.84094300     0.06830
C943        C  0.37061651  0.97350849  0.84937430    -0.15320
C944        C  0.34881462  0.97354346  0.87126934    -0.15320
C945        C  0.34046029  0.00005610  0.88513125     0.06830
C946        C  0.35483375  0.02641882  0.87723190    -0.15320
H947        H  0.38710491  0.04708440  0.84937602     0.10810
H948        H  0.37618027  0.95284363  0.83861997     0.10810
H949        H  0.33806431  0.95289726  0.87689386     0.10810
H950        H  0.34893746  0.04713945  0.88768953     0.10810
C951        C  0.12085815  0.52792234  0.85208286    -0.15320
C952        C  0.10957855  0.00110135  0.84118141     0.06830
C953        C  0.12003522  0.97439602  0.85306087    -0.15320
C954        C  0.14193585  0.97448474  0.87487162    -0.15320
C955        C  0.15379462  0.50128752  0.88518579     0.06830
C956        C  0.14276954  0.52801038  0.87387446    -0.15320
H957        H  0.11315999  0.54884493  0.84338126     0.10810
H958        H  0.11165781  0.95339307  0.84514285     0.10810
H959        H  0.14994316  0.95355702  0.88327332     0.10810
H960        H  0.15145550  0.54900812  0.88147148     0.10810
C961        C  0.11799408  0.47558229  0.64060887    -0.15320
C962        C  0.10950300  0.50212656  0.65433357     0.06830
C963        C  0.12262711  0.52873249  0.64517733    -0.15320
C964        C  0.14441619  0.52870955  0.62326312    -0.15320
C965        C  0.15348248  0.50206794  0.61010505     0.06830
C966        C  0.13979015  0.47555892  0.61869086    -0.15320
H967        H  0.10812125  0.45478082  0.64711940     0.10810
H968        H  0.11650413  0.54953343  0.65538558     0.10810
H969        H  0.15459224  0.54946658  0.61707890     0.10810
H970        H  0.14624255  0.45471313  0.60878812     0.10810
C971        C  0.37231307  0.52806976  0.64414984    -0.15320
C972        C  0.38435502  0.50137068  0.65444053     0.06830
C973        C  0.37460573  0.97461883  0.64200400    -0.15320
C974        C  0.35267092  0.97452160  0.62022134    -0.15320
C975        C  0.34010677  0.00118422  0.61046808     0.06830
C976        C  0.35040321  0.52797370  0.62236234    -0.15320
H977        H  0.37942662  0.54901362  0.65331051     0.10810
H978        H  0.38358990  0.95370110  0.64944442     0.10810
H979        H  0.34524126  0.95356324  0.61135106     0.10810
H980        H  0.34113880  0.54887731  0.61523026     0.10810
C981        C  0.02360516  0.62319389  0.85389266    -0.15320
C982        C  0.49683283  0.61238876  0.84245975     0.06830
C983        C  0.47008902  0.62316914  0.85396275    -0.15320
C984        C  0.47010578  0.64508788  0.87577423    -0.15320
C985        C  0.99688115  0.65661868  0.88647244     0.06830
C986        C  0.02362179  0.64510782  0.87569796    -0.15320
H987        H  0.04454328  0.61519328  0.84553463     0.10810
H988        H  0.44910791  0.61513423  0.84564453     0.10810
H989        H  0.44917199  0.65345154  0.88377838     0.10810
H990        H  0.04460671  0.65349599  0.88364950     0.10810
C991        C  0.02380995  0.87683268  0.85150133    -0.15320
C992        C  0.49707656  0.88787277  0.84023000     0.06830
C993        C  0.47029924  0.87721422  0.85178790    -0.15320
C994        C  0.47025528  0.85541594  0.87370790    -0.15320
C995        C  0.49698614  0.84387085  0.88447186     0.06830
C996        C  0.02376587  0.85503620  0.87341430    -0.15320
H997        H  0.04478536  0.88468770  0.84304880     0.10810
H998        H  0.44935747  0.88538207  0.84356803     0.10810
H999        H  0.44927930  0.84727099  0.88188257     0.10810
H1000       H  0.04470791  0.84658978  0.88134694     0.10810
C1001       C  0.47059411  0.87884460  0.64174489    -0.15320
C1002       C  0.99736658  0.88975763  0.65306864     0.06830
C1003       C  0.02411119  0.87906505  0.64148361    -0.15320
C1004       C  0.02409069  0.85713655  0.61968307    -0.15320
C1005       C  0.49731825  0.84551014  0.60908569     0.06830
C1006       C  0.47057362  0.85692119  0.61995483    -0.15320
H1007       H  0.44964832  0.88677466  0.65017660     0.10810
H1008       H  0.04508368  0.88718414  0.64971555     0.10810
H1009       H  0.04503299  0.84884714  0.61159559     0.10810
H1010       H  0.44959818  0.84845703  0.61208674     0.10810
C1011       C  0.02389069  0.62508250  0.64373870    -0.15320
C1012       C  0.99709790  0.61421803  0.65507210     0.06830
C1013       C  0.47038097  0.62502302  0.64353608    -0.15320
C1014       C  0.47045094  0.64681276  0.62160868    -0.15320
C1015       C  0.99723872  0.65821105  0.61080308     0.06830
C1016       C  0.02396089  0.64687423  0.62180937    -0.15320
H1017       H  0.04482658  0.61709982  0.65216205     0.10810
H1018       H  0.44939714  0.61699475  0.65179618     0.10810
H1019       H  0.44951333  0.65508021  0.61347343     0.10810
H1020       H  0.04494266  0.65519465  0.61383643     0.10810
N1021       N  0.56086021  0.48702869  0.21364539    -0.08100
N1022       N  0.57766281  0.47704552  0.19196089    -0.60220
N1023       N  0.56072266  0.01558289  0.28191943    -0.07780
N1024       N  0.57755320  0.02575376  0.30348010    -0.62340
N1025       N  0.56082564  0.48649942  0.28176188    -0.07370
N1026       N  0.57774557  0.47627987  0.30325001    -0.60190
N1027       N  0.56085943  0.01611105  0.21393943    -0.07050
N1028       N  0.57773952  0.02652063  0.19252412    -0.62700
C1029       C  0.58798263  0.00191264  0.17890343     0.94080
C1030       C  0.58795182  0.50101857  0.31669387     0.93860
N1031       N  0.98235598  0.06448310  0.28234046    -0.08280
N1032       N  0.97213040  0.08096981  0.30416534    -0.60790
N1033       N  0.51151105  0.06519540  0.21428210    -0.06400
N1034       N  0.52172911  0.08221163  0.19288231    -0.62050
N1035       N  0.98243989  0.06515709  0.21423047    -0.08310
N1036       N  0.97228057  0.08215639  0.19278048    -0.61060
N1037       N  0.51142298  0.06453738  0.28235060    -0.06040
N1038       N  0.52157960  0.08105258  0.30417585    -0.62130
Mn1039     Mn  0.53677468  0.04101915  0.24811744     1.18440
C1040       C  0.99684010  0.09108234  0.31768172     0.96160
C1041       C  0.49702944  0.09257691  0.17956666     0.96830
N1042       N  0.51169430  0.43707338  0.28120446    -0.08330
N1043       N  0.52185789  0.42002760  0.30260963    -0.64640
N1044       N  0.98275733  0.43770116  0.21308397    -0.07130
N1045       N  0.97261332  0.42115679  0.19127839    -0.65310
N1046       N  0.51182494  0.43773866  0.21312647    -0.07840
N1047       N  0.52206348  0.42121555  0.19133484    -0.64900
N1048       N  0.98262303  0.43701617  0.28113453    -0.06730
N1049       N  0.97240838  0.41994392  0.30249329    -0.65590
Mn1050     Mn  0.53697721  0.46140671  0.24744718     1.10660
C1051       C  0.99711455  0.40956363  0.31578920     0.97380
C1052       C  0.49735977  0.41109695  0.17781183     0.97460
N1053       N  0.93327510  0.01576963  0.21375588    -0.07850
N1054       N  0.91624655  0.02604519  0.19238875    -0.63220
N1055       N  0.93326131  0.48609426  0.28145794    -0.07160
N1056       N  0.91629752  0.47565391  0.30278926    -0.59950
N1057       N  0.93330615  0.01517691  0.28182978    -0.08470
N1058       N  0.91646248  0.02512889  0.30349793    -0.62790
N1059       N  0.93343475  0.48668650  0.21348086    -0.07460
N1060       N  0.91656447  0.47657338  0.19191634    -0.59970
Mn1061     Mn  0.95717489  0.04082740  0.24803711     1.20190
Mn1062     Mn  0.95737466  0.46121187  0.24728446     1.10090
Cl1063     Cl  0.49707339  0.00111445  0.24772158    -0.87940
C1064       C  0.90605929  0.00135221  0.17885847     0.94390
C1065       C  0.90606331  0.50023957  0.31645084     0.94190
N1066       N  0.98273142  0.21727643  0.06163770    -0.08100
N1067       N  0.97255291  0.19587631  0.07867542    -0.60220
N1068       N  0.51176476  0.28534518  0.06126000    -0.07780
N1069       N  0.52199031  0.30717070  0.07773608    -0.62340
N1070       N  0.98269747  0.28533983  0.06132035    -0.07370
N1071       N  0.97253856  0.30715660  0.07784541    -0.60190
N1072       N  0.51180269  0.21726395  0.06159308    -0.07050
N1073       N  0.52200027  0.19585098  0.07861607    -0.62700
C1074       C  0.49727435  0.18260470  0.08904716     0.94080
C1075       C  0.99728476  0.32066608  0.08786644     0.93860
N1076       N  0.56074410  0.28515880  0.48288752    -0.08280
N1077       N  0.57750194  0.30670336  0.47257499    -0.60790
N1078       N  0.56095455  0.21714670  0.01215699    -0.06400
N1079       N  0.57813351  0.19580539  0.02225695    -0.62050
N1080       N  0.56102089  0.21730640  0.48306594    -0.08310
N1081       N  0.57834629  0.19621495  0.47276690    -0.61060
N1082       N  0.56077669  0.28527640  0.01197802    -0.06040
N1083       N  0.57748859  0.30698538  0.02206437    -0.62130
Mn1084     Mn  0.53699153  0.25122796  0.03742906     1.18440
C1085       C  0.58770933  0.32022898  0.49724581     0.96160
C1086       C  0.58876248  0.18287636  0.49742666     0.96830
N1087       N  0.93333142  0.28514979  0.01230708    -0.08330
N1088       N  0.91631882  0.30657635  0.02249958    -0.64640
N1089       N  0.93327447  0.21721249  0.48336718    -0.07130
N1090       N  0.91619708  0.19589427  0.47313451    -0.65310
N1091       N  0.93345187  0.21704675  0.01245576    -0.07840
N1092       N  0.91657777  0.19549317  0.02262476    -0.64900
N1093       N  0.93328100  0.28510064  0.48321495    -0.06730
N1094       N  0.91619446  0.30644451  0.47301570    -0.65590
Mn1095     Mn  0.95739918  0.25118873  0.03761080     1.10660
C1096       C  0.90584744  0.31975727  0.49775271     0.97380
C1097       C  0.90602987  0.18243110  0.49783155     0.97460
N1098       N  0.51151470  0.21685155  0.43416876    -0.07850
N1099       N  0.52166745  0.19499704  0.41768735    -0.63220
N1100       N  0.98242574  0.28494698  0.43380657    -0.07160
N1101       N  0.97222949  0.30632600  0.41674534    -0.59950
N1102       N  0.51149242  0.28490970  0.43373917    -0.08470
N1103       N  0.52167570  0.30625663  0.41664104    -0.62790
N1104       N  0.98244388  0.21686526  0.43421750    -0.07460
N1105       N  0.97221623  0.19501377  0.41777455    -0.59970
Mn1106     Mn  0.53682715  0.25105803  0.45780129     1.20190
Mn1107     Mn  0.95721267  0.25105676  0.45798622     1.10090
Cl1108     Cl  0.99710753  0.25112599  0.49771303    -0.87940
C1109       C  0.49691827  0.18148229  0.40767836     0.94390
C1110       C  0.99695597  0.31952169  0.40626257     0.94190
N1111       N  0.78064261  0.43709615  0.48329296    -0.08100
N1112       N  0.80203437  0.42006136  0.47311007    -0.60220
N1113       N  0.71253132  0.43762763  0.01217353    -0.07780
N1114       N  0.69080944  0.42092504  0.02223893    -0.62340
N1115       N  0.71272933  0.43755998  0.48308614    -0.07370
N1116       N  0.69122506  0.42076711  0.47275391    -0.60190
N1117       N  0.78062071  0.43712844  0.01238521    -0.07050
N1118       N  0.80204446  0.42013076  0.02259530    -0.62700
C1119       C  0.81529309  0.40969995  0.49784954     0.94080
C1120       C  0.67763765  0.41062651  0.49740016     0.93860
N1121       N  0.71297901  0.01600971  0.06136744    -0.08280
N1122       N  0.69156735  0.02641591  0.07824791    -0.60790
N1123       N  0.78079494  0.48650042  0.06161992    -0.06400
N1124       N  0.80226487  0.47630557  0.07857417    -0.62050
N1125       N  0.78088569  0.01558488  0.06155695    -0.08310
N1126       N  0.80235934  0.02578165  0.07847127    -0.61060
N1127       N  0.71270632  0.48692655  0.06135285    -0.06040
N1128       N  0.69103170  0.47694183  0.07816033    -0.62130
Mn1129     Mn  0.74666157  0.46136347  0.03756722     1.18440
C1130       C  0.67796193  0.00181566  0.08848469     0.96160
C1131       C  0.81560393  0.50106231  0.08886547     0.96830
N1132       N  0.71314016  0.48668642  0.43390716    -0.08330
N1133       N  0.69154234  0.47654539  0.41710845    -0.64640
N1134       N  0.78140424  0.01529350  0.43404627    -0.07130
N1135       N  0.80306394  0.02525024  0.41720019    -0.65310
N1136       N  0.78106695  0.48621140  0.43399406    -0.07840
N1137       N  0.80240174  0.47577718  0.41703893    -0.64900
N1138       N  0.71332965  0.01576982  0.43380150    -0.06730
N1139       N  0.69185147  0.02601896  0.41690094    -0.65590
Mn1140     Mn  0.74689696  0.46124716  0.45792754     1.10660
C1141       C  0.67836426  0.00130498  0.40671369     0.97380
C1142       C  0.81604047  0.50035650  0.40680657     0.97460
N1143       N  0.78147583  0.06465083  0.01225490    -0.07850
N1144       N  0.80298575  0.08156345  0.02244913    -0.63580
N1145       N  0.71365698  0.06522282  0.48293655    -0.07160
N1146       N  0.69258128  0.08255254  0.47262011    -0.59950
N1147       N  0.71339262  0.06510681  0.01202799    -0.08470
N1148       N  0.69200175  0.08222786  0.02210984    -0.62790
N1149       N  0.78142558  0.06470365  0.48316365    -0.07460
N1150       N  0.80276986  0.08175649  0.47295748    -0.59970
Mn1151     Mn  0.74718099  0.04098206  0.03745666     1.20190
Mn1152     Mn  0.74746565  0.04089000  0.45781932     1.10090
Cl1153     Cl  0.74705572  0.00112209  0.49769891    -0.87940
C1154       C  0.81614083  0.09201432  0.49767890     0.94390
C1155       C  0.67915161  0.09290004  0.49728045     0.94190
C1156       C  0.87417909  0.35647911  0.52446555    -0.15320
C1157       C  0.88404383  0.34409389  0.49773189     0.06830
C1158       C  0.87206061  0.35439074  0.47099690    -0.15320
C1159       C  0.85012925  0.37615439  0.47102854    -0.15320
C1160       C  0.83975466  0.38803957  0.49779188     0.06830
C1161       C  0.85223051  0.37825454  0.52449736    -0.15320
H1162       H  0.88310422  0.34903128  0.54540144     0.10810
H1163       H  0.87925368  0.34526522  0.45005808     0.10810
H1164       H  0.84093647  0.38329726  0.45010028     0.10810
H1165       H  0.84473309  0.38710877  0.04544385     0.10810
C1166       C  0.86937440  0.15077777  0.47141824    -0.15320
C1167       C  0.88428878  0.15809666  0.49764670     0.06830
C1168       C  0.87748049  0.14269053  0.02373997    -0.15320
C1169       C  0.85568221  0.12074288  0.02369415    -0.15320
C1170       C  0.84036997  0.11386940  0.49755746     0.06830
C1171       C  0.84762878  0.12887637  0.47137148    -0.15320
H1172       H  0.87408897  0.16239177  0.45101003     0.10810
H1173       H  0.88878468  0.14780505  0.04421786     0.10810
H1174       H  0.85060356  0.10936943  0.04414927     0.10810
H1175       H  0.83608204  0.12412207  0.45094248     0.10810
C1176       C  0.61769744  0.35849233  0.52366668    -0.15320
C1177       C  0.60915291  0.34485183  0.49709668     0.06830
C1178       C  0.62218386  0.35411254  0.47047468    -0.15320
C1179       C  0.64396100  0.37601926  0.47051910    -0.15320
C1180       C  0.65311291  0.38907261  0.49718054     0.06830
C1181       C  0.63948976  0.38041638  0.52371115    -0.15320
H1182       H  0.60787933  0.35189269  0.54449056     0.10810
H1183       H  0.61602015  0.34398585  0.44966835     0.10810
H1184       H  0.65408354  0.38226928  0.44972810     0.10810
H1185       H  0.64600482  0.39023692  0.54455137     0.10810
C1186       C  0.62627494  0.15208652  0.47112090    -0.15320
C1187       C  0.61080196  0.15880631  0.49719237     0.06830
C1188       C  0.61726716  0.14300386  0.52312935    -0.15320
C1189       C  0.63918421  0.12118396  0.52308134    -0.15320
C1190       C  0.65498333  0.11482842  0.49710423     0.06830
C1191       C  0.64816007  0.13030639  0.47107444    -0.15320
H1192       H  0.62185343  0.16405250  0.45084642     0.10810
H1193       H  0.60554327  0.14765768  0.54347620     0.10810
H1194       H  0.64392066  0.10944323  0.54341358     0.10810
H1195       H  0.66011053  0.12597119  0.45078576     0.10810
C1196       C  0.87664808  0.52638347  0.35532938    -0.15320
C1197       C  0.88446605  0.49998690  0.34094302     0.06830
C1198       C  0.87061665  0.47350857  0.34937450    -0.15320
C1199       C  0.84881474  0.47354333  0.37126952    -0.15320
C1200       C  0.84046033  0.50005615  0.38513128     0.06830
C1201       C  0.85483367  0.52641874  0.37723176    -0.15320
H1202       H  0.88710450  0.54708399  0.34937593     0.10810
H1203       H  0.87618063  0.45284312  0.33862001     0.10810
H1204       H  0.83806479  0.45289767  0.37689401     0.10810
H1205       H  0.84893716  0.54713997  0.38768954     0.10810
C1206       C  0.62085813  0.02792237  0.35208284    -0.15320
C1207       C  0.60957855  0.50110131  0.34118141     0.06830
C1208       C  0.62003524  0.47439605  0.35306088    -0.15320
C1209       C  0.64193587  0.47448468  0.37487163    -0.15320
C1210       C  0.65379462  0.00128753  0.38518578     0.06830
C1211       C  0.64276952  0.02801032  0.37387444    -0.15320
H1212       H  0.61316005  0.04884471  0.34338133     0.10810
H1213       H  0.61165774  0.45339286  0.34514278     0.10810
H1214       H  0.64994310  0.45355720  0.38327324     0.10810
H1215       H  0.65145557  0.04900831  0.38147154     0.10810
C1216       C  0.61799407  0.97558230  0.14060886    -0.15320
C1217       C  0.60950300  0.00212655  0.15433357     0.06830
C1218       C  0.62262713  0.02873250  0.14517735    -0.15320
C1219       C  0.64441620  0.02870953  0.12326314    -0.15320
C1220       C  0.65348248  0.00206794  0.11010505     0.06830
C1221       C  0.63979014  0.97555890  0.11869085    -0.15320
H1222       H  0.60812121  0.95478076  0.14711940     0.10810
H1223       H  0.61650417  0.04953336  0.15538558     0.10810
H1224       H  0.65459229  0.04946663  0.11707891     0.10810
H1225       H  0.64624252  0.95471319  0.10878813     0.10810
C1226       C  0.87231304  0.02806978  0.14414986    -0.15320
C1227       C  0.88435501  0.00137069  0.15444052     0.06830
C1228       C  0.87460573  0.47461884  0.14200400    -0.15320
C1229       C  0.85267092  0.47452160  0.12022134    -0.15320
C1230       C  0.84010678  0.50118423  0.11046807     0.06830
C1231       C  0.85040318  0.02797370  0.12236236    -0.15320
H1232       H  0.87942656  0.04901359  0.15331053     0.10810
H1233       H  0.88358989  0.45370108  0.14944444     0.10810
H1234       H  0.84524125  0.45356327  0.11135108     0.10810
H1235       H  0.84113874  0.04887735  0.11523029     0.10810
C1236       C  0.52360517  0.12319390  0.35389265    -0.15320
C1237       C  0.99683283  0.11238878  0.34245974     0.06830
C1238       C  0.97008901  0.12316916  0.35396274    -0.15320
C1239       C  0.97010579  0.14508789  0.37577421    -0.15320
C1240       C  0.49688114  0.15661869  0.38647242     0.06830
C1241       C  0.52362176  0.14510783  0.37569794    -0.15320
H1242       H  0.54454320  0.11519331  0.34553464     0.10810
H1243       H  0.94910793  0.11513425  0.34564453     0.10810
H1244       H  0.94917197  0.15345156  0.38377837     0.10810
H1245       H  0.54460677  0.15349603  0.38364951     0.10810
C1246       C  0.52380995  0.37683268  0.35150133    -0.15320
C1247       C  0.99707656  0.38787277  0.34023001     0.06830
C1248       C  0.97029923  0.37721423  0.35178790    -0.15320
C1249       C  0.97025528  0.35541595  0.37370790    -0.15320
C1250       C  0.99698614  0.34387086  0.38447187     0.06830
C1251       C  0.52376585  0.35503620  0.37341431    -0.15320
H1252       H  0.54478534  0.38468769  0.34304881     0.10810
H1253       H  0.94935749  0.38538207  0.34356804     0.10810
H1254       H  0.94927926  0.34727099  0.38188259     0.10810
H1255       H  0.54470792  0.34658978  0.38134696     0.10810
C1256       C  0.97059409  0.37884461  0.14174489    -0.15320
C1257       C  0.49736657  0.38975763  0.15306863     0.06830
C1258       C  0.52411121  0.37906506  0.14148361    -0.15320
C1259       C  0.52409067  0.35713655  0.11968307    -0.15320
C1260       C  0.99731825  0.34551014  0.10908568     0.06830
C1261       C  0.97057367  0.35692121  0.11995483    -0.15320
H1262       H  0.94964848  0.38677462  0.15017653     0.10810
H1263       H  0.54508358  0.38718410  0.14971550     0.10810
H1264       H  0.54503309  0.34884711  0.11159555     0.10810
H1265       H  0.94959805  0.34845698  0.11208668     0.10810
C1266       C  0.52389068  0.12508250  0.14373870    -0.15320
C1267       C  0.49709789  0.11421802  0.15507210     0.06830
C1268       C  0.97038099  0.12502302  0.14353608    -0.15320
C1269       C  0.97045093  0.14681276  0.12160868    -0.15320
C1270       C  0.49723871  0.15821104  0.11080308     0.06830
C1271       C  0.52396088  0.14687422  0.12180937    -0.15320
H1272       H  0.54482656  0.11709982  0.15216204     0.10810
H1273       H  0.94939709  0.11699473  0.15179621     0.10810
H1274       H  0.94951338  0.15508019  0.11347345     0.10810
H1275       H  0.54494266  0.15519464  0.11383642     0.10810
N1276       N  0.56086021  0.48702870  0.71364539    -0.08100
N1277       N  0.57766281  0.47704552  0.69196089    -0.60220
N1278       N  0.56072267  0.01558290  0.78191943    -0.07780
N1279       N  0.57755320  0.02575377  0.80348009    -0.62340
N1280       N  0.56082564  0.48649943  0.78176188    -0.07370
N1281       N  0.57774557  0.47627988  0.80325001    -0.60190
N1282       N  0.56085943  0.01611104  0.71393942    -0.07050
N1283       N  0.57773951  0.02652062  0.69252411    -0.62700
C1284       C  0.58798262  0.00191264  0.67890342     0.94080
C1285       C  0.58795182  0.50101857  0.81669387     0.93860
N1286       N  0.98235598  0.06448310  0.78234045    -0.08280
N1287       N  0.97213040  0.08096981  0.80416534    -0.60790
N1288       N  0.51151104  0.06519539  0.71428209    -0.06400
N1289       N  0.52172911  0.08221163  0.69288230    -0.62050
N1290       N  0.98243989  0.06515708  0.71423046    -0.08310
N1291       N  0.97228057  0.08215639  0.69278048    -0.61060
N1292       N  0.51142298  0.06453738  0.78235060    -0.06040
N1293       N  0.52157960  0.08105257  0.80417585    -0.62130
Mn1294     Mn  0.53677468  0.04101915  0.74811743     1.18440
C1295       C  0.99684010  0.09108233  0.81768172     0.96160
C1296       C  0.49702943  0.09257691  0.67956666     0.96830
N1297       N  0.51169430  0.43707338  0.78120447    -0.08330
N1298       N  0.52185789  0.42002760  0.80260963    -0.64640
N1299       N  0.98275733  0.43770116  0.71308397    -0.07130
N1300       N  0.97261332  0.42115680  0.69127840    -0.65310
N1301       N  0.51182494  0.43773866  0.71312648    -0.07840
N1302       N  0.52206347  0.42121555  0.69133484    -0.64900
N1303       N  0.98262303  0.43701618  0.78113454    -0.06730
N1304       N  0.97240839  0.41994392  0.80249330    -0.65590
Mn1305     Mn  0.53697721  0.46140671  0.74744718     1.10660
C1306       C  0.99711456  0.40956363  0.81578920     0.97380
C1307       C  0.49735976  0.41109695  0.67781184     0.97460
N1308       N  0.93327510  0.01576962  0.71375588    -0.07850
N1309       N  0.91624655  0.02604519  0.69238876    -0.63220
N1310       N  0.93326131  0.48609427  0.78145794    -0.07160
N1311       N  0.91629751  0.47565392  0.80278926    -0.59950
N1312       N  0.93330615  0.01517691  0.78182979    -0.08470
N1313       N  0.91646248  0.02512889  0.80349793    -0.62790
N1314       N  0.93343475  0.48668650  0.71348086    -0.07460
N1315       N  0.91656447  0.47657338  0.69191635    -0.59970
Mn1316     Mn  0.95717489  0.04082740  0.74803711     1.20190
Mn1317     Mn  0.95737467  0.46121188  0.74728446     1.10090
Cl1318     Cl  0.49707340  0.00111445  0.74772158    -0.87940
C1319       C  0.90605928  0.00135221  0.67885848     0.94390
C1320       C  0.90606330  0.50023958  0.81645083     0.94190
N1321       N  0.98273142  0.21727644  0.56163771    -0.08100
N1322       N  0.97255290  0.19587631  0.57867542    -0.60220
N1323       N  0.51176475  0.28534518  0.56126001    -0.07780
N1324       N  0.52199030  0.30717071  0.57773608    -0.62340
N1325       N  0.98269746  0.28533983  0.56132035    -0.07370
N1326       N  0.97253855  0.30715660  0.57784542    -0.60190
N1327       N  0.51180268  0.21726395  0.56159308    -0.07050
N1328       N  0.52200027  0.19585099  0.57861607    -0.62700
C1329       C  0.49727434  0.18260470  0.58904717     0.94080
C1330       C  0.99728475  0.32066608  0.58786644     0.93860
N1331       N  0.56074411  0.28515879  0.98288752    -0.08280
N1332       N  0.57750196  0.30670335  0.97257499    -0.60790
N1333       N  0.56095454  0.21714671  0.51215699    -0.06400
N1334       N  0.57813350  0.19580540  0.52225694    -0.62050
N1335       N  0.56102092  0.21730641  0.98306595    -0.08310
N1336       N  0.57834634  0.19621498  0.97276692    -0.61060
N1337       N  0.56077668  0.28527641  0.51197802    -0.06040
N1338       N  0.57748857  0.30698540  0.52206437    -0.62130
Mn1339     Mn  0.53699153  0.25122796  0.53742906     1.18440
C1340       C  0.58770935  0.32022896  0.99724580     0.96160
C1341       C  0.58876252  0.18287638  0.99742664     0.96830
N1342       N  0.93333142  0.28514979  0.51230709    -0.08330
N1343       N  0.91631882  0.30657635  0.52249959    -0.64640
N1344       N  0.93327447  0.21721249  0.98336718    -0.07130
N1345       N  0.91619706  0.19589428  0.97313452    -0.65310
N1346       N  0.93345187  0.21704675  0.51245575    -0.07840
N1347       N  0.91657777  0.19549316  0.52262475    -0.64900
N1348       N  0.93328101  0.28510064  0.98321494    -0.06730
N1349       N  0.91619447  0.30644450  0.97301569    -0.65590
Mn1350     Mn  0.95739917  0.25118873  0.53761080     1.10660
C1351       C  0.90584744  0.31975726  0.99775270     0.97380
C1352       C  0.90602986  0.18243112  0.99783154     0.97460
N1353       N  0.51151471  0.21685154  0.93416876    -0.07850
N1354       N  0.52166746  0.19499703  0.91768736    -0.63220
N1355       N  0.98242575  0.28494697  0.93380656    -0.07160
N1356       N  0.97222950  0.30632598  0.91674534    -0.59950
N1357       N  0.51149243  0.28490969  0.93373917    -0.08470
N1358       N  0.52167571  0.30625662  0.91664103    -0.62790
N1359       N  0.98244389  0.21686525  0.93421750    -0.07460
N1360       N  0.97221624  0.19501376  0.91777455    -0.59970
Mn1361     Mn  0.53682717  0.25105802  0.95780129     1.20190
Mn1362     Mn  0.95721267  0.25105675  0.95798622     1.10090
Cl1363     Cl  0.99710754  0.25112598  0.99771302    -0.87940
C1364       C  0.49691828  0.18148228  0.90767837     0.94390
C1365       C  0.99695598  0.31952168  0.90626256     0.94190
N1366       N  0.78064261  0.43709616  0.98329295    -0.08100
N1367       N  0.80203438  0.42006137  0.97311007    -0.60220
N1368       N  0.71253131  0.43762763  0.51217354    -0.07780
N1369       N  0.69080943  0.42092504  0.52223894    -0.62340
N1370       N  0.71272934  0.43755998  0.98308613    -0.07370
N1371       N  0.69122507  0.42076711  0.97275389    -0.60190
N1372       N  0.78062071  0.43712843  0.51238522    -0.07050
N1373       N  0.80204446  0.42013076  0.52259531    -0.62700
C1374       C  0.81529309  0.40969995  0.99784953     0.94080
C1375       C  0.67763766  0.41062651  0.99740015     0.93860
N1376       N  0.71297902  0.01600972  0.56136743    -0.08280
N1377       N  0.69156735  0.02641592  0.57824789    -0.60790
N1378       N  0.78079494  0.48650042  0.56161993    -0.06400
N1379       N  0.80226487  0.47630557  0.57857418    -0.62050
N1380       N  0.78088569  0.01558489  0.56155694    -0.08310
N1381       N  0.80235934  0.02578166  0.57847126    -0.61060
N1382       N  0.71270632  0.48692655  0.56135286    -0.06040
N1383       N  0.69103170  0.47694183  0.57816033    -0.62130
Mn1384     Mn  0.74666157  0.46136347  0.53756722     1.18440
C1385       C  0.67796193  0.00181567  0.58848468     0.96160
C1386       C  0.81560393  0.50106230  0.58886547     0.96830
N1387       N  0.71314016  0.48668644  0.93390716    -0.08330
N1388       N  0.69154234  0.47654541  0.91710846    -0.64640
N1389       N  0.78140424  0.01529350  0.93404628    -0.07130
N1390       N  0.80306394  0.02525024  0.91720020    -0.65310
N1391       N  0.78106695  0.48621142  0.93399406    -0.07840
N1392       N  0.80240172  0.47577719  0.91703891    -0.64900
N1393       N  0.71332965  0.01576983  0.93380151    -0.06730
N1394       N  0.69185147  0.02601897  0.91690095    -0.65590
Mn1395     Mn  0.74689696  0.46124717  0.95792754     1.10660
C1396       C  0.67836426  0.00130499  0.90671370     0.97380
C1397       C  0.81604046  0.50035652  0.90680656     0.97460
N1398       N  0.78147583  0.06465083  0.51225489    -0.07850
N1399       N  0.80298576  0.08156344  0.52244913    -0.63580
N1400       N  0.71365699  0.06522283  0.98293655    -0.07160
N1401       N  0.69258133  0.08255258  0.97262010    -0.59950
N1402       N  0.71339262  0.06510682  0.51202799    -0.08470
N1403       N  0.69200175  0.08222785  0.52210985    -0.62790
N1404       N  0.78142558  0.06470366  0.98316366    -0.07460
N1405       N  0.80276984  0.08175651  0.97295749    -0.59970
Mn1406     Mn  0.74718100  0.04098207  0.53745665     1.20190
Mn1407     Mn  0.74746566  0.04089000  0.95781933     1.10090
Cl1408     Cl  0.74705572  0.00112209  0.99769892    -0.87940
C1409       C  0.81614081  0.09201434  0.99767893     0.94390
C1410       C  0.67915164  0.09290008  0.99728047     0.94190
C1411       C  0.87417909  0.35647909  0.02446558    -0.15320
C1412       C  0.88404382  0.34409388  0.99773187     0.06830
C1413       C  0.87206060  0.35439075  0.97099692    -0.15320
C1414       C  0.85012924  0.37615440  0.97102850    -0.15320
C1415       C  0.83975466  0.38803957  0.99779188     0.06830
C1416       C  0.85223051  0.37825452  0.02449732    -0.15320
H1417       H  0.88310416  0.34903131  0.04540129     0.10810
H1418       H  0.87925372  0.34526516  0.95005793     0.10810
H1419       H  0.84093652  0.38329722  0.95010041     0.10810
H1420       H  0.84473314  0.38710872  0.54544373     0.10810
C1421       C  0.86937423  0.15077798  0.97141820    -0.15320
C1422       C  0.88428875  0.15809669  0.99764673     0.06830
C1423       C  0.87748042  0.14269064  0.52374009    -0.15320
C1424       C  0.85568211  0.12074302  0.52369411    -0.15320
C1425       C  0.84036992  0.11386944  0.99755743     0.06830
C1426       C  0.84762863  0.12887656  0.97137161    -0.15320
H1427       H  0.87408861  0.16239188  0.95101047     0.10810
H1428       H  0.88878428  0.14780519  0.54421758     0.10810
H1429       H  0.85060327  0.10936947  0.54414969     0.10810
H1430       H  0.83608156  0.12412230  0.95094222     0.10810
C1431       C  0.61769745  0.35849234  0.02366666    -0.15320
C1432       C  0.60915293  0.34485181  0.99709668     0.06830
C1433       C  0.62218390  0.35411250  0.97047466    -0.15320
C1434       C  0.64396103  0.37601922  0.97051910    -0.15320
C1435       C  0.65311293  0.38907260  0.99718052     0.06830
C1436       C  0.63948976  0.38041639  0.02371115    -0.15320
H1437       H  0.60787930  0.35189269  0.04449061     0.10810
H1438       H  0.61602022  0.34398582  0.94966841     0.10810
H1439       H  0.65408362  0.38226924  0.94972803     0.10810
H1440       H  0.64600479  0.39023692  0.04455130     0.10810
C1441       C  0.62627546  0.15208711  0.97112089    -0.15320
C1442       C  0.61080203  0.15880636  0.99719243     0.06830
C1443       C  0.61726686  0.14300347  0.02312904    -0.15320
C1444       C  0.63918386  0.12118352  0.02308132    -0.15320
C1445       C  0.65498341  0.11482850  0.99710415     0.06830
C1446       C  0.64816053  0.13030693  0.97107472    -0.15320
H1447       H  0.62185442  0.16405304  0.95084734     0.10810
H1448       H  0.60554220  0.14765707  0.04347655     0.10810
H1449       H  0.64391982  0.10944283  0.04341264     0.10810
H1450       H  0.66011177  0.12597197  0.95078540     0.10810
C1451       C  0.87664816  0.52638345  0.85532946    -0.15320
C1452       C  0.88446603  0.49998691  0.84094300     0.06830
C1453       C  0.87061652  0.47350860  0.84937437    -0.15320
C1454       C  0.84881460  0.47354336  0.87126939    -0.15320
C1455       C  0.84046031  0.50005616  0.88513126     0.06830
C1456       C  0.85483376  0.52641873  0.87723185    -0.15320
H1457       H  0.88710468  0.54708396  0.84937610     0.10810
H1458       H  0.87618041  0.45284318  0.83861980     0.10810
H1459       H  0.83806457  0.45289772  0.87689379     0.10810
H1460       H  0.84893733  0.54713993  0.88768971     0.10810
C1461       C  0.62085814  0.02792235  0.85208285    -0.15320
C1462       C  0.60957855  0.50110135  0.84118141     0.06830
C1463       C  0.62003523  0.47439602  0.85306087    -0.15320
C1464       C  0.64193586  0.47448474  0.87487162    -0.15320
C1465       C  0.65379462  0.00128753  0.88518578     0.06830
C1466       C  0.64276953  0.02801035  0.87387445    -0.15320
H1467       H  0.61316001  0.04884484  0.84338129     0.10810
H1468       H  0.61165780  0.45339304  0.84514284     0.10810
H1469       H  0.64994316  0.45355705  0.88327331     0.10810
H1470       H  0.65145552  0.04900821  0.88147150     0.10810
C1471       C  0.61799413  0.97558233  0.64060889    -0.15320
C1472       C  0.60950299  0.00212653  0.65433356     0.06830
C1473       C  0.62262706  0.02873254  0.64517730    -0.15320
C1474       C  0.64441613  0.02870951  0.62326308    -0.15320
C1475       C  0.65348248  0.00206796  0.61010504     0.06830
C1476       C  0.63979019  0.97555886  0.61869087    -0.15320
H1477       H  0.60812123  0.95478059  0.64711951     0.10810
H1478       H  0.61650410  0.04953322  0.65538542     0.10810
H1479       H  0.65459226  0.04946680  0.61707877     0.10810
H1480       H  0.64624256  0.95471333  0.60878827     0.10810
C1481       C  0.87231304  0.02806979  0.64414987    -0.15320
C1482       C  0.88435501  0.00137068  0.65444053     0.06830
C1483       C  0.87460572  0.47461885  0.64200401    -0.15320
C1484       C  0.85267091  0.47452159  0.62022135    -0.15320
C1485       C  0.84010678  0.50118423  0.61046807     0.06830
C1486       C  0.85040319  0.02797369  0.62236237    -0.15320
H1487       H  0.87942655  0.04901355  0.65331051     0.10810
H1488       H  0.88358989  0.45370103  0.64944448     0.10810
H1489       H  0.84524126  0.45356331  0.61135112     0.10810
H1490       H  0.84113872  0.04887740  0.61523027     0.10810
C1491       C  0.52360517  0.12319389  0.85389266    -0.15320
C1492       C  0.99683284  0.11238876  0.84245975     0.06830
C1493       C  0.97008901  0.12316914  0.85396274    -0.15320
C1494       C  0.97010580  0.14508788  0.87577422    -0.15320
C1495       C  0.49688115  0.15661868  0.88647244     0.06830
C1496       C  0.52362178  0.14510781  0.87569795    -0.15320
H1497       H  0.54454323  0.11519329  0.84553464     0.10810
H1498       H  0.94910795  0.11513424  0.84564455     0.10810
H1499       H  0.94917196  0.15345155  0.88377839     0.10810
H1500       H  0.54460674  0.15349600  0.88364951     0.10810
C1501       C  0.52380995  0.37683267  0.85150133    -0.15320
C1502       C  0.99707656  0.38787277  0.84023000     0.06830
C1503       C  0.97029925  0.37721422  0.85178791    -0.15320
C1504       C  0.97025528  0.35541594  0.87370790    -0.15320
C1505       C  0.99698615  0.34387085  0.88447186     0.06830
C1506       C  0.52376587  0.35503619  0.87341430    -0.15320
H1507       H  0.54478539  0.38468770  0.84304879     0.10810
H1508       H  0.94935746  0.38538208  0.84356803     0.10810
H1509       H  0.94927932  0.34727100  0.88188257     0.10810
H1510       H  0.54470789  0.34658978  0.88134693     0.10810
C1511       C  0.97059406  0.37884462  0.64174490    -0.15320
C1512       C  0.49736655  0.38975763  0.65306864     0.06830
C1513       C  0.52411121  0.37906506  0.64148362    -0.15320
C1514       C  0.52409065  0.35713656  0.61968307    -0.15320
C1515       C  0.99731823  0.34551015  0.60908569     0.06830
C1516       C  0.97057368  0.35692121  0.61995485    -0.15320
H1517       H  0.94964855  0.38677459  0.65017652     0.10810
H1518       H  0.54508351  0.38718409  0.64971549     0.10810
H1519       H  0.54503313  0.34884709  0.61159553     0.10810
H1520       H  0.94959796  0.34845696  0.61208667     0.10810
C1521       C  0.52389069  0.12508250  0.64373870    -0.15320
C1522       C  0.49709788  0.11421802  0.65507209     0.06830
C1523       C  0.97038098  0.12502303  0.64353608    -0.15320
C1524       C  0.97045093  0.14681277  0.62160869    -0.15320
C1525       C  0.49723871  0.15821105  0.61080308     0.06830
C1526       C  0.52396086  0.14687422  0.62180937    -0.15320
H1527       H  0.54482651  0.11709984  0.65216202     0.10810
H1528       H  0.94939708  0.11699473  0.65179621     0.10810
H1529       H  0.94951338  0.15508020  0.61347346     0.10810
H1530       H  0.54494270  0.15519466  0.61383641     0.10810
N1531       N  0.56086020  0.98702870  0.21364539    -0.08100
N1532       N  0.57766280  0.97704552  0.19196089    -0.60220
N1533       N  0.56072267  0.51558289  0.28191943    -0.07780
N1534       N  0.57755321  0.52575375  0.30348009    -0.62340
N1535       N  0.56082564  0.98649942  0.28176188    -0.07370
N1536       N  0.57774557  0.97627987  0.30325001    -0.60190
N1537       N  0.56085944  0.51611105  0.21393943    -0.07050
N1538       N  0.57773952  0.52652063  0.19252412    -0.62700
C1539       C  0.58798263  0.50191264  0.17890343     0.94080
C1540       C  0.58795182  0.00101857  0.31669387     0.93860
N1541       N  0.98235598  0.56448310  0.28234045    -0.08280
N1542       N  0.97213040  0.58096981  0.30416534    -0.60790
N1543       N  0.51151105  0.56519539  0.21428210    -0.06400
N1544       N  0.52172911  0.58221163  0.19288231    -0.62050
N1545       N  0.98243989  0.56515708  0.21423046    -0.08310
N1546       N  0.97228057  0.58215639  0.19278048    -0.61060
N1547       N  0.51142299  0.56453738  0.28235060    -0.06040
N1548       N  0.52157961  0.58105258  0.30417585    -0.62130
Mn1549     Mn  0.53677469  0.54101915  0.24811743     1.18440
C1550       C  0.99684009  0.59108233  0.31768171     0.96160
C1551       C  0.49702944  0.59257691  0.17956666     0.96830
N1552       N  0.51169430  0.93707338  0.28120447    -0.08330
N1553       N  0.52185788  0.92002760  0.30260963    -0.64640
N1554       N  0.98275733  0.93770117  0.21308397    -0.07130
N1555       N  0.97261332  0.92115680  0.19127839    -0.65310
N1556       N  0.51182494  0.93773866  0.21312647    -0.07840
N1557       N  0.52206348  0.92121555  0.19133484    -0.64900
N1558       N  0.98262303  0.93701617  0.28113453    -0.06730
N1559       N  0.97240838  0.91994392  0.30249329    -0.65590
Mn1560     Mn  0.53697721  0.96140671  0.24744718     1.10660
C1561       C  0.99711455  0.90956363  0.31578920     0.97380
C1562       C  0.49735976  0.91109696  0.17781183     0.97460
N1563       N  0.93327511  0.51576962  0.21375588    -0.07850
N1564       N  0.91624656  0.52604519  0.19238875    -0.63220
N1565       N  0.93326131  0.98609427  0.28145793    -0.07160
N1566       N  0.91629750  0.97565391  0.30278925    -0.59950
N1567       N  0.93330615  0.51517690  0.28182978    -0.08470
N1568       N  0.91646248  0.52512889  0.30349793    -0.62790
N1569       N  0.93343475  0.98668650  0.21348086    -0.07460
N1570       N  0.91656447  0.97657338  0.19191634    -0.59970
Mn1571     Mn  0.95717490  0.54082739  0.24803711     1.20190
Mn1572     Mn  0.95737466  0.96121188  0.24728445     1.10090
Cl1573     Cl  0.49707340  0.50111445  0.24772158    -0.87940
C1574       C  0.90605929  0.50135220  0.17885847     0.94390
C1575       C  0.90606329  0.00023957  0.31645082     0.94190
N1576       N  0.98273142  0.71727643  0.06163771    -0.08100
N1577       N  0.97255291  0.69587631  0.07867542    -0.60220
N1578       N  0.51176476  0.78534518  0.06126000    -0.07780
N1579       N  0.52199031  0.80717070  0.07773608    -0.62340
N1580       N  0.98269747  0.78533983  0.06132035    -0.07370
N1581       N  0.97253856  0.80715660  0.07784542    -0.60190
N1582       N  0.51180269  0.71726395  0.06159308    -0.07050
N1583       N  0.52200028  0.69585098  0.07861607    -0.62700
C1584       C  0.49727435  0.68260470  0.08904717     0.94080
C1585       C  0.99728476  0.82066608  0.08786644     0.93860
N1586       N  0.56074410  0.78515879  0.48288751    -0.08280
N1587       N  0.57750195  0.80670336  0.47257499    -0.60790
N1588       N  0.56095455  0.71714670  0.01215699    -0.06400
N1589       N  0.57813351  0.69580539  0.02225694    -0.62050
N1590       N  0.56102090  0.71730640  0.48306594    -0.08310
N1591       N  0.57834629  0.69621495  0.47276692    -0.61060
N1592       N  0.56077669  0.78527640  0.01197803    -0.06040
N1593       N  0.57748859  0.80698538  0.02206438    -0.62130
Mn1594     Mn  0.53699153  0.75122795  0.03742906     1.18440
C1595       C  0.58770933  0.82022898  0.49724580     0.96160
C1596       C  0.58876248  0.68287636  0.49742665     0.96830
N1597       N  0.93333142  0.78514979  0.01230708    -0.08330
N1598       N  0.91631882  0.80657635  0.02249958    -0.64640
N1599       N  0.93327447  0.71721249  0.48336717    -0.07130
N1600       N  0.91619708  0.69589427  0.47313450    -0.65310
N1601       N  0.93345187  0.71704675  0.01245576    -0.07840
N1602       N  0.91657777  0.69549317  0.02262475    -0.64900
N1603       N  0.93328100  0.78510064  0.48321495    -0.06730
N1604       N  0.91619446  0.80644451  0.47301569    -0.65590
Mn1605     Mn  0.95739918  0.75118873  0.03761080     1.10660
C1606       C  0.90584744  0.81975727  0.49775271     0.97380
C1607       C  0.90602987  0.68243110  0.49783155     0.97460
N1608       N  0.51151470  0.71685155  0.43416876    -0.07850
N1609       N  0.52166745  0.69499704  0.41768735    -0.63220
N1610       N  0.98242574  0.78494698  0.43380657    -0.07160
N1611       N  0.97222949  0.80632599  0.41674534    -0.59950
N1612       N  0.51149242  0.78490969  0.43373916    -0.08470
N1613       N  0.52167570  0.80625663  0.41664103    -0.62790
N1614       N  0.98244388  0.71686526  0.43421750    -0.07460
N1615       N  0.97221623  0.69501377  0.41777454    -0.59970
Mn1616     Mn  0.53682716  0.75105803  0.45780129     1.20190
Mn1617     Mn  0.95721267  0.75105676  0.45798622     1.10090
Cl1618     Cl  0.99710753  0.75112599  0.49771302    -0.87940
C1619       C  0.49691828  0.68148229  0.40767836     0.94390
C1620       C  0.99695597  0.81952169  0.40626257     0.94190
N1621       N  0.78064261  0.93709615  0.48329296    -0.08100
N1622       N  0.80203437  0.92006136  0.47311007    -0.60220
N1623       N  0.71253132  0.93762763  0.01217353    -0.07780
N1624       N  0.69080944  0.92092504  0.02223892    -0.62340
N1625       N  0.71272933  0.93755998  0.48308613    -0.07370
N1626       N  0.69122506  0.92076711  0.47275390    -0.60190
N1627       N  0.78062071  0.93712843  0.01238522    -0.07050
N1628       N  0.80204445  0.92013076  0.02259532    -0.62700
C1629       C  0.81529309  0.90969995  0.49784954     0.94080
C1630       C  0.67763765  0.91062652  0.49740015     0.93860
N1631       N  0.71297902  0.51600971  0.06136744    -0.08280
N1632       N  0.69156736  0.52641592  0.07824790    -0.60790
N1633       N  0.78079493  0.98650042  0.06161993    -0.06400
N1634       N  0.80226486  0.97630557  0.07857418    -0.62050
N1635       N  0.78088569  0.51558488  0.06155695    -0.08310
N1636       N  0.80235934  0.52578166  0.07847126    -0.61060
N1637       N  0.71270632  0.98692655  0.06135286    -0.06040
N1638       N  0.69103170  0.97694183  0.07816033    -0.62130
Mn1639     Mn  0.74666157  0.96136347  0.03756722     1.18440
C1640       C  0.67796194  0.50181567  0.08848469     0.96160
C1641       C  0.81560393  0.00106230  0.08886548     0.96830
N1642       N  0.71314016  0.98668643  0.43390715    -0.08330
N1643       N  0.69154234  0.97654540  0.41710845    -0.64640
N1644       N  0.78140424  0.51529349  0.43404628    -0.07130
N1645       N  0.80306395  0.52525024  0.41720020    -0.65310
N1646       N  0.78106694  0.98621140  0.43399405    -0.07840
N1647       N  0.80240172  0.97577718  0.41703891    -0.64900
N1648       N  0.71332965  0.51576982  0.43380150    -0.06730
N1649       N  0.69185147  0.52601896  0.41690094    -0.65590
Mn1650     Mn  0.74689695  0.96124716  0.45792754     1.10660
C1651       C  0.67836426  0.50130497  0.40671369     0.97380
C1652       C  0.81604045  0.00035650  0.40680655     0.97460
N1653       N  0.78147583  0.56465083  0.01225490    -0.07850
N1654       N  0.80298575  0.58156345  0.02244914    -0.63580
N1655       N  0.71365698  0.56522281  0.48293655    -0.07160
N1656       N  0.69258129  0.58255253  0.47262010    -0.59950
N1657       N  0.71339262  0.56510681  0.01202800    -0.08470
N1658       N  0.69200175  0.58222786  0.02210985    -0.62790
N1659       N  0.78142558  0.56470365  0.48316366    -0.07460
N1660       N  0.80276986  0.58175648  0.47295749    -0.59970
Mn1661     Mn  0.74718099  0.54098207  0.03745666     1.20190
Mn1662     Mn  0.74746565  0.54088999  0.45781932     1.10090
Cl1663     Cl  0.74705572  0.50112208  0.49769892    -0.87940
C1664       C  0.81614083  0.59201431  0.49767890     0.94390
C1665       C  0.67915161  0.59290004  0.49728047     0.94190
C1666       C  0.87417909  0.85647911  0.52446556    -0.15320
C1667       C  0.88404383  0.84409389  0.49773188     0.06830
C1668       C  0.87206060  0.85439074  0.47099691    -0.15320
C1669       C  0.85012925  0.87615439  0.47102852    -0.15320
C1670       C  0.83975466  0.88803957  0.49779188     0.06830
C1671       C  0.85223051  0.87825454  0.52449735    -0.15320
H1672       H  0.88310420  0.84903129  0.54540139     0.10810
H1673       H  0.87925369  0.84526520  0.45005803     0.10810
H1674       H  0.84093648  0.88329725  0.45010032     0.10810
H1675       H  0.84473300  0.88710889  0.04544418     0.10810
C1676       C  0.86937439  0.65077777  0.47141827    -0.15320
C1677       C  0.88428877  0.65809666  0.49764668     0.06830
C1678       C  0.87748057  0.64269052  0.02374007    -0.15320
C1679       C  0.85568225  0.62074291  0.02369403    -0.15320
C1680       C  0.84036997  0.61386939  0.49755748     0.06830
C1681       C  0.84762875  0.62887638  0.47137145    -0.15320
H1682       H  0.87408897  0.66239187  0.45100989     0.10810
H1683       H  0.88878449  0.64780489  0.04421734     0.10810
H1684       H  0.85060352  0.60936913  0.04414974     0.10810
H1685       H  0.83608209  0.62412212  0.45094263     0.10810
C1686       C  0.61769745  0.85849233  0.52366666    -0.15320
C1687       C  0.60915291  0.84485184  0.49709668     0.06830
C1688       C  0.62218385  0.85411255  0.47047466    -0.15320
C1689       C  0.64396099  0.87601927  0.47051910    -0.15320
C1690       C  0.65311291  0.88907261  0.49718053     0.06830
C1691       C  0.63948977  0.88041638  0.52371116    -0.15320
H1692       H  0.60787932  0.85189267  0.54449062     0.10810
H1693       H  0.61602016  0.84398589  0.44966840     0.10810
H1694       H  0.65408356  0.88226931  0.44972803     0.10810
H1695       H  0.64600481  0.89023689  0.54455131     0.10810
C1696       C  0.62627490  0.65208655  0.47112077    -0.15320
C1697       C  0.61080196  0.65880629  0.49719243     0.06830
C1698       C  0.61726724  0.64300387  0.52312925    -0.15320
C1699       C  0.63918425  0.62118393  0.52308147    -0.15320
C1700       C  0.65498334  0.61482843  0.49710417     0.06830
C1701       C  0.64815999  0.63030637  0.47107455    -0.15320
H1702       H  0.62185347  0.66405217  0.45084693     0.10810
H1703       H  0.60554304  0.64765782  0.54347675     0.10810
H1704       H  0.64392061  0.60944356  0.54341307     0.10810
H1705       H  0.66011077  0.62597105  0.45078522     0.10810
C1706       C  0.87664818  0.02638343  0.35532948    -0.15320
C1707       C  0.88446602  0.99998690  0.34094299     0.06830
C1708       C  0.87061649  0.97350859  0.34937434    -0.15320
C1709       C  0.84881458  0.97354335  0.37126936    -0.15320
C1710       C  0.84046030  0.00005614  0.38513125     0.06830
C1711       C  0.85483377  0.02641871  0.37723186    -0.15320
H1712       H  0.88710471  0.04708394  0.34937613     0.10810
H1713       H  0.87618037  0.95284317  0.33861975     0.10810
H1714       H  0.83806453  0.95289771  0.37689375     0.10810
H1715       H  0.84893736  0.04713990  0.38768975     0.10810
C1716       C  0.62085814  0.52792237  0.35208284    -0.15320
C1717       C  0.60957855  0.00110132  0.34118140     0.06830
C1718       C  0.62003523  0.97439605  0.35306087    -0.15320
C1719       C  0.64193587  0.97448469  0.37487162    -0.15320
C1720       C  0.65379462  0.50128753  0.38518578     0.06830
C1721       C  0.64276953  0.52801031  0.37387444    -0.15320
H1722       H  0.61316006  0.54884469  0.34338134     0.10810
H1723       H  0.61165775  0.95339288  0.34514278     0.10810
H1724       H  0.64994310  0.95355719  0.38327324     0.10810
H1725       H  0.65145558  0.54900833  0.38147154     0.10810
C1726       C  0.61799407  0.47558231  0.14060885    -0.15320
C1727       C  0.60950300  0.50212655  0.15433357     0.06830
C1728       C  0.62262714  0.52873250  0.14517735    -0.15320
C1729       C  0.64441621  0.52870954  0.12326314    -0.15320
C1730       C  0.65348249  0.50206795  0.11010504     0.06830
C1731       C  0.63979014  0.47555891  0.11869084    -0.15320
H1732       H  0.60812121  0.45478076  0.14711938     0.10810
H1733       H  0.61650418  0.54953336  0.15538559     0.10810
H1734       H  0.65459230  0.54946664  0.11707892     0.10810
H1735       H  0.64624251  0.45471320  0.10878812     0.10810
C1736       C  0.87231307  0.52806978  0.14414984    -0.15320
C1737       C  0.88435502  0.50137068  0.15444052     0.06830
C1738       C  0.87460574  0.97461885  0.14200399    -0.15320
C1739       C  0.85267093  0.97452160  0.12022133    -0.15320
C1740       C  0.84010677  0.00118423  0.11046807     0.06830
C1741       C  0.85040321  0.52797370  0.12236234    -0.15320
H1742       H  0.87942661  0.54901360  0.15331050     0.10810
H1743       H  0.88358992  0.95370108  0.14944442     0.10810
H1744       H  0.84524128  0.95356328  0.11135106     0.10810
H1745       H  0.84113879  0.54887734  0.11523025     0.10810
C1746       C  0.52360517  0.62319390  0.35389265    -0.15320
C1747       C  0.99683283  0.61238877  0.34245974     0.06830
C1748       C  0.97008900  0.62316915  0.35396273    -0.15320
C1749       C  0.97010580  0.64508789  0.37577420    -0.15320
C1750       C  0.49688115  0.65661869  0.38647242     0.06830
C1751       C  0.52362177  0.64510783  0.37569794    -0.15320
H1752       H  0.54454322  0.61519330  0.34553463     0.10810
H1753       H  0.94910799  0.61513427  0.34564455     0.10810
H1754       H  0.94917191  0.65345158  0.38377839     0.10810
H1755       H  0.54460676  0.65349602  0.38364950     0.10810
C1756       C  0.52380993  0.87683268  0.35150133    -0.15320
C1757       C  0.99707656  0.88787278  0.34023001     0.06830
C1758       C  0.97029923  0.87721423  0.35178790    -0.15320
C1759       C  0.97025528  0.85541595  0.37370790    -0.15320
C1760       C  0.99698613  0.84387086  0.38447187     0.06830
C1761       C  0.52376587  0.85503620  0.37341431    -0.15320
H1762       H  0.54478542  0.88468773  0.34304878     0.10810
H1763       H  0.94935749  0.88538207  0.34356804     0.10810
H1764       H  0.94927926  0.84727099  0.38188259     0.10810
H1765       H  0.54470783  0.84658982  0.38134693     0.10810
C1766       C  0.97059407  0.87884462  0.14174489    -0.15320
C1767       C  0.49736658  0.88975764  0.15306863     0.06830
C1768       C  0.52411120  0.87906506  0.14148360    -0.15320
C1769       C  0.52409068  0.85713655  0.11968306    -0.15320
C1770       C  0.99731824  0.84551015  0.10908568     0.06830
C1771       C  0.97057369  0.85692121  0.11995484    -0.15320
H1772       H  0.94964854  0.88677461  0.15017651     0.10810
H1773       H  0.54508363  0.88718413  0.14971552     0.10810
H1774       H  0.54503304  0.84884713  0.11159557     0.10810
H1775       H  0.94959799  0.84845697  0.11208666     0.10810
C1776       C  0.52389070  0.62508249  0.14373870    -0.15320
C1777       C  0.49709789  0.61421802  0.15507210     0.06830
C1778       C  0.97038099  0.62502302  0.14353608    -0.15320
C1779       C  0.97045093  0.64681276  0.12160869    -0.15320
C1780       C  0.49723872  0.65821104  0.11080308     0.06830
C1781       C  0.52396087  0.64687422  0.12180937    -0.15320
H1782       H  0.54482652  0.61709984  0.15216203     0.10810
H1783       H  0.94939709  0.61699473  0.15179621     0.10810
H1784       H  0.94951339  0.65508019  0.11347346     0.10810
H1785       H  0.54494271  0.65519466  0.11383641     0.10810
N1786       N  0.56086021  0.98702869  0.71364539    -0.08100
N1787       N  0.57766280  0.97704551  0.69196089    -0.60220
N1788       N  0.56072266  0.51558290  0.78191943    -0.07780
N1789       N  0.57755320  0.52575377  0.80348009    -0.62340
N1790       N  0.56082564  0.98649942  0.78176188    -0.07370
N1791       N  0.57774557  0.97627988  0.80325001    -0.60190
N1792       N  0.56085943  0.51611105  0.71393943    -0.07050
N1793       N  0.57773952  0.52652063  0.69252412    -0.62700
C1794       C  0.58798263  0.50191264  0.67890343     0.94080
C1795       C  0.58795182  0.00101858  0.81669387     0.93860
N1796       N  0.98235598  0.56448311  0.78234046    -0.08280
N1797       N  0.97213040  0.58096981  0.80416534    -0.60790
N1798       N  0.51151105  0.56519539  0.71428209    -0.06400
N1799       N  0.52172911  0.58221163  0.69288230    -0.62050
N1800       N  0.98243989  0.56515709  0.71423046    -0.08310
N1801       N  0.97228057  0.58215639  0.69278048    -0.61060
N1802       N  0.51142298  0.56453738  0.78235060    -0.06040
N1803       N  0.52157960  0.58105257  0.80417585    -0.62130
Mn1804     Mn  0.53677468  0.54101916  0.74811743     1.18440
C1805       C  0.99684010  0.59108233  0.81768172     0.96160
C1806       C  0.49702944  0.59257692  0.67956666     0.96830
N1807       N  0.51169430  0.93707338  0.78120447    -0.08330
N1808       N  0.52185789  0.92002760  0.80260963    -0.64640
N1809       N  0.98275733  0.93770116  0.71308397    -0.07130
N1810       N  0.97261332  0.92115679  0.69127840    -0.65310
N1811       N  0.51182494  0.93773866  0.71312648    -0.07840
N1812       N  0.52206347  0.92121555  0.69133484    -0.64900
N1813       N  0.98262303  0.93701617  0.78113453    -0.06730
N1814       N  0.97240838  0.91994392  0.80249330    -0.65590
Mn1815     Mn  0.53697721  0.96140671  0.74744718     1.10660
C1816       C  0.99711455  0.90956363  0.81578920     0.97380
C1817       C  0.49735976  0.91109695  0.67781184     0.97460
N1818       N  0.93327511  0.51576962  0.71375588    -0.07850
N1819       N  0.91624656  0.52604519  0.69238875    -0.63220
N1820       N  0.93326130  0.98609427  0.78145794    -0.07160
N1821       N  0.91629749  0.97565392  0.80278925    -0.59950
N1822       N  0.93330615  0.51517691  0.78182979    -0.08470
N1823       N  0.91646248  0.52512889  0.80349793    -0.62790
N1824       N  0.93343475  0.98668650  0.71348086    -0.07460
N1825       N  0.91656446  0.97657338  0.69191635    -0.59970
Mn1826     Mn  0.95717490  0.54082740  0.74803711     1.20190
Mn1827     Mn  0.95737466  0.96121188  0.74728446     1.10090
Cl1828     Cl  0.49707340  0.50111445  0.74772159    -0.87940
C1829       C  0.90605929  0.50135220  0.67885847     0.94390
C1830       C  0.90606329  0.00023957  0.81645082     0.94190
N1831       N  0.98273142  0.71727644  0.56163770    -0.08100
N1832       N  0.97255291  0.69587631  0.57867542    -0.60220
N1833       N  0.51176476  0.78534518  0.56126000    -0.07780
N1834       N  0.52199031  0.80717071  0.57773608    -0.62340
N1835       N  0.98269746  0.78533983  0.56132035    -0.07370
N1836       N  0.97253855  0.80715660  0.57784542    -0.60190
N1837       N  0.51180269  0.71726396  0.56159308    -0.07050
N1838       N  0.52200028  0.69585099  0.57861607    -0.62700
C1839       C  0.49727435  0.68260471  0.58904716     0.94080
C1840       C  0.99728475  0.82066608  0.58786644     0.93860
N1841       N  0.56074411  0.78515879  0.98288752    -0.08280
N1842       N  0.57750196  0.80670335  0.97257500    -0.60790
N1843       N  0.56095455  0.71714671  0.51215699    -0.06400
N1844       N  0.57813351  0.69580540  0.52225695    -0.62050
N1845       N  0.56102092  0.71730641  0.98306594    -0.08310
N1846       N  0.57834635  0.69621499  0.97276690    -0.61060
N1847       N  0.56077668  0.78527641  0.51197802    -0.06040
N1848       N  0.57748858  0.80698540  0.52206437    -0.62130
Mn1849     Mn  0.53699153  0.75122797  0.53742905     1.18440
C1850       C  0.58770935  0.82022897  0.99724580     0.96160
C1851       C  0.58876253  0.68287639  0.99742665     0.96830
N1852       N  0.93333141  0.78514979  0.51230708    -0.08330
N1853       N  0.91631881  0.80657635  0.52249959    -0.64640
N1854       N  0.93327447  0.71721249  0.98336718    -0.07130
N1855       N  0.91619706  0.69589429  0.97313451    -0.65310
N1856       N  0.93345187  0.71704675  0.51245575    -0.07840
N1857       N  0.91657777  0.69549316  0.52262475    -0.64900
N1858       N  0.93328101  0.78510064  0.98321495    -0.06730
N1859       N  0.91619447  0.80644450  0.97301568    -0.65590
Mn1860     Mn  0.95739917  0.75118873  0.53761080     1.10660
C1861       C  0.90584744  0.81975727  0.99775272     0.97380
C1862       C  0.90602985  0.68243112  0.99783156     0.97460
N1863       N  0.51151471  0.71685155  0.93416876    -0.07850
N1864       N  0.52166746  0.69499703  0.91768736    -0.63220
N1865       N  0.98242575  0.78494697  0.93380657    -0.07160
N1866       N  0.97222950  0.80632599  0.91674534    -0.59950
N1867       N  0.51149243  0.78490969  0.93373917    -0.08470
N1868       N  0.52167571  0.80625662  0.91664103    -0.62790
N1869       N  0.98244389  0.71686525  0.93421751    -0.07460
N1870       N  0.97221624  0.69501377  0.91777456    -0.59970
Mn1871     Mn  0.53682716  0.75105803  0.95780129     1.20190
Mn1872     Mn  0.95721267  0.75105675  0.95798622     1.10090
Cl1873     Cl  0.99710754  0.75112598  0.99771303    -0.87940
C1874       C  0.49691828  0.68148228  0.90767837     0.94390
C1875       C  0.99695598  0.81952168  0.90626256     0.94190
N1876       N  0.78064261  0.93709615  0.98329296    -0.08100
N1877       N  0.80203437  0.92006136  0.97311008    -0.60220
N1878       N  0.71253131  0.93762763  0.51217353    -0.07780
N1879       N  0.69080943  0.92092505  0.52223893    -0.62340
N1880       N  0.71272934  0.93755998  0.98308613    -0.07370
N1881       N  0.69122507  0.92076710  0.97275389    -0.60190
N1882       N  0.78062071  0.93712844  0.51238522    -0.07050
N1883       N  0.80204446  0.92013076  0.52259531    -0.62700
C1884       C  0.81529309  0.90969995  0.99784953     0.94080
C1885       C  0.67763766  0.91062651  0.99740016     0.93860
N1886       N  0.71297902  0.51600971  0.56136744    -0.08280
N1887       N  0.69156736  0.52641592  0.57824790    -0.60790
N1888       N  0.78079494  0.98650042  0.56161992    -0.06400
N1889       N  0.80226486  0.97630557  0.57857418    -0.62050
N1890       N  0.78088570  0.51558488  0.56155695    -0.08310
N1891       N  0.80235935  0.52578165  0.57847126    -0.61060
N1892       N  0.71270632  0.98692656  0.56135285    -0.06040
N1893       N  0.69103170  0.97694184  0.57816033    -0.62130
Mn1894     Mn  0.74666157  0.96136347  0.53756722     1.18440
C1895       C  0.67796194  0.50181568  0.58848469     0.96160
C1896       C  0.81560393  0.00106231  0.58886547     0.96830
N1897       N  0.71314016  0.98668643  0.93390716    -0.08330
N1898       N  0.69154234  0.97654541  0.91710846    -0.64640
N1899       N  0.78140424  0.51529351  0.93404628    -0.07130
N1900       N  0.80306395  0.52525025  0.91720020    -0.65310
N1901       N  0.78106695  0.98621141  0.93399406    -0.07840
N1902       N  0.80240172  0.97577718  0.91703891    -0.64900
N1903       N  0.71332965  0.51576984  0.93380150    -0.06730
N1904       N  0.69185147  0.52601897  0.91690095    -0.65590
Mn1905     Mn  0.74689696  0.96124716  0.95792754     1.10660
C1906       C  0.67836426  0.50130500  0.90671370     0.97380
C1907       C  0.81604045  0.00035651  0.90680655     0.97460
N1908       N  0.78147583  0.56465082  0.51225489    -0.07850
N1909       N  0.80298576  0.58156343  0.52244913    -0.63580
N1910       N  0.71365699  0.56522284  0.98293655    -0.07160
N1911       N  0.69258133  0.58255259  0.97262011    -0.59950
N1912       N  0.71339263  0.56510681  0.51202799    -0.08470
N1913       N  0.69200176  0.58222786  0.52210984    -0.62790
N1914       N  0.78142558  0.56470366  0.98316367    -0.07460
N1915       N  0.80276984  0.58175652  0.97295750    -0.59970
Mn1916     Mn  0.74718100  0.54098206  0.53745665     1.20190
Mn1917     Mn  0.74746566  0.54089001  0.95781933     1.10090
Cl1918     Cl  0.74705572  0.50112209  0.99769891    -0.87940
C1919       C  0.81614081  0.59201435  0.99767891     0.94390
C1920       C  0.67915164  0.59290008  0.99728046     0.94190
C1921       C  0.87417911  0.85647908  0.02446565    -0.15320
C1922       C  0.88404382  0.84409388  0.99773184     0.06830
C1923       C  0.87206058  0.85439077  0.97099700    -0.15320
C1924       C  0.85012921  0.87615441  0.97102843    -0.15320
C1925       C  0.83975466  0.88803957  0.99779192     0.06830
C1926       C  0.85223053  0.87825450  0.02449725    -0.15320
H1927       H  0.88310404  0.84903141  0.04540098     0.10810
H1928       H  0.87925381  0.84526504  0.95005761     0.10810
H1929       H  0.84093664  0.88329712  0.95010073     0.10810
H1930       H  0.84473313  0.88710875  0.54544376     0.10810
C1931       C  0.86937418  0.65077798  0.97141833    -0.15320
C1932       C  0.88428874  0.65809671  0.99764668     0.06830
C1933       C  0.87748045  0.64269063  0.52374012    -0.15320
C1934       C  0.85568213  0.62074302  0.52369407    -0.15320
C1935       C  0.84036993  0.61386944  0.99755749     0.06830
C1936       C  0.84762854  0.62887660  0.97137151    -0.15320
H1937       H  0.87408863  0.66239221  0.95101000     0.10810
H1938       H  0.88878423  0.64780514  0.54421743     0.10810
H1939       H  0.85060327  0.60936937  0.54414983     0.10810
H1940       H  0.83608174  0.62412247  0.95094273     0.10810
C1941       C  0.61769747  0.85849235  0.02366660    -0.15320
C1942       C  0.60915292  0.84485182  0.99709671     0.06830
C1943       C  0.62218388  0.85411248  0.97047461    -0.15320
C1944       C  0.64396100  0.87601921  0.97051917    -0.15320
C1945       C  0.65311293  0.88907260  0.99718050     0.06830
C1946       C  0.63948977  0.88041641  0.02371122    -0.15320
H1947       H  0.60787919  0.85189262  0.04449088     0.10810
H1948       H  0.61602028  0.84398595  0.94966868     0.10810
H1949       H  0.65408373  0.88226932  0.94972777     0.10810
H1950       H  0.64600472  0.89023680  0.04455103     0.10810
C1951       C  0.62627551  0.65208711  0.97112101    -0.15320
C1952       C  0.61080204  0.65880637  0.99719237     0.06830
C1953       C  0.61726678  0.64300346  0.02312913    -0.15320
C1954       C  0.63918382  0.62118354  0.02308119    -0.15320
C1955       C  0.65498341  0.61482850  0.99710420     0.06830
C1956       C  0.64816062  0.63030696  0.97107462    -0.15320
H1957       H  0.62185441  0.66405338  0.95084687     0.10810
H1958       H  0.60554240  0.64765692  0.04347604     0.10810
H1959       H  0.64391985  0.60944252  0.04341310     0.10810
H1960       H  0.66011158  0.62597212  0.95078590     0.10810
C1961       C  0.87664819  0.02638343  0.85532949    -0.15320
C1962       C  0.88446602  0.99998690  0.84094299     0.06830
C1963       C  0.87061647  0.97350860  0.84937432    -0.15320
C1964       C  0.84881455  0.97354336  0.87126934    -0.15320
C1965       C  0.84046030  0.00005615  0.88513125     0.06830
C1966       C  0.85483378  0.02641871  0.87723188    -0.15320
H1967       H  0.88710474  0.04708393  0.84937616     0.10810
H1968       H  0.87618033  0.95284318  0.83861971     0.10810
H1969       H  0.83806449  0.95289773  0.87689371     0.10810
H1970       H  0.84893738  0.04713991  0.88768978     0.10810
C1971       C  0.62085814  0.52792234  0.85208286    -0.15320
C1972       C  0.60957855  0.00110134  0.84118141     0.06830
C1973       C  0.62003523  0.97439603  0.85306087    -0.15320
C1974       C  0.64193586  0.97448473  0.87487162    -0.15320
C1975       C  0.65379462  0.50128753  0.88518578     0.06830
C1976       C  0.64276953  0.52801036  0.87387445    -0.15320
H1977       H  0.61316000  0.54884487  0.84338128     0.10810
H1978       H  0.61165779  0.95339301  0.84514283     0.10810
H1979       H  0.64994314  0.95355708  0.88327329     0.10810
H1980       H  0.65145551  0.54900818  0.88147149     0.10810
C1981       C  0.61799408  0.47558229  0.64060887    -0.15320
C1982       C  0.60950300  0.50212656  0.65433357     0.06830
C1983       C  0.62262712  0.52873250  0.64517733    -0.15320
C1984       C  0.64441620  0.52870956  0.62326312    -0.15320
C1985       C  0.65348248  0.50206794  0.61010505     0.06830
C1986       C  0.63979015  0.47555892  0.61869086    -0.15320
H1987       H  0.60812126  0.45478081  0.64711940     0.10810
H1988       H  0.61650413  0.54953342  0.65538559     0.10810
H1989       H  0.65459224  0.54946659  0.61707890     0.10810
H1990       H  0.64624256  0.45471314  0.60878812     0.10810
C1991       C  0.87231307  0.52806979  0.64414984    -0.15320
C1992       C  0.88435502  0.50137068  0.65444053     0.06830
C1993       C  0.87460573  0.97461886  0.64200400    -0.15320
C1994       C  0.85267092  0.97452160  0.62022133    -0.15320
C1995       C  0.84010677  0.00118424  0.61046808     0.06830
C1996       C  0.85040322  0.52797368  0.62236234    -0.15320
H1997       H  0.87942660  0.54901355  0.65331048     0.10810
H1998       H  0.88358992  0.95370103  0.64944444     0.10810
H1999       H  0.84524129  0.95356332  0.61135109     0.10810
H2000       H  0.84113877  0.54887739  0.61523023     0.10810
C2001       C  0.52360517  0.62319389  0.85389266    -0.15320
C2002       C  0.99683283  0.61238877  0.84245975     0.06830
C2003       C  0.97008901  0.62316915  0.85396275    -0.15320
C2004       C  0.97010579  0.64508788  0.87577422    -0.15320
C2005       C  0.49688115  0.65661868  0.88647244     0.06830
C2006       C  0.52362178  0.64510781  0.87569796    -0.15320
H2007       H  0.54454323  0.61519329  0.84553464     0.10810
H2008       H  0.94910795  0.61513425  0.84564455     0.10810
H2009       H  0.94917196  0.65345156  0.88377839     0.10810
H2010       H  0.54460674  0.65349600  0.88364951     0.10810
C2011       C  0.52380995  0.87683267  0.85150132    -0.15320
C2012       C  0.99707656  0.88787277  0.84023001     0.06830
C2013       C  0.97029924  0.87721422  0.85178791    -0.15320
C2014       C  0.97025528  0.85541594  0.87370790    -0.15320
C2015       C  0.99698615  0.84387085  0.88447186     0.06830
C2016       C  0.52376587  0.85503619  0.87341430    -0.15320
H2017       H  0.54478536  0.88468769  0.84304880     0.10810
H2018       H  0.94935746  0.88538207  0.84356803     0.10810
H2019       H  0.94927930  0.84727099  0.88188258     0.10810
H2020       H  0.54470791  0.84658978  0.88134694     0.10810
C2021       C  0.97059406  0.87884462  0.64174490    -0.15320
C2022       C  0.49736655  0.88975763  0.65306864     0.06830
C2023       C  0.52411123  0.87906506  0.64148362    -0.15320
C2024       C  0.52409064  0.85713656  0.61968308    -0.15320
C2025       C  0.99731823  0.84551015  0.60908569     0.06830
C2026       C  0.97057368  0.85692121  0.61995484    -0.15320
H2027       H  0.94964853  0.88677460  0.65017652     0.10810
H2028       H  0.54508346  0.88718406  0.64971547     0.10810
H2029       H  0.54503320  0.84884707  0.61159551     0.10810
H2030       H  0.94959798  0.84845696  0.61208667     0.10810
C2031       C  0.52389068  0.62508250  0.64373870    -0.15320
C2032       C  0.49709790  0.61421803  0.65507210     0.06830
C2033       C  0.97038098  0.62502302  0.64353608    -0.15320
C2034       C  0.97045094  0.64681276  0.62160869    -0.15320
C2035       C  0.49723871  0.65821105  0.61080308     0.06830
C2036       C  0.52396088  0.64687423  0.62180937    -0.15320
H2037       H  0.54482657  0.61709982  0.65216205     0.10810
H2038       H  0.94939714  0.61699475  0.65179619     0.10810
H2039       H  0.94951333  0.65508022  0.61347344     0.10810
H2040       H  0.54494266  0.65519465  0.61383643     0.10810
loop_ 
_geom_bond_atom_site_label_1 
_geom_bond_atom_site_label_2 
_geom_bond_distance 
_geom_bond_site_symmetry_2 
_ccdc_geom_bond_type 
N1            N2   1.320       .  A
N1          N517   1.315       .  A
N1          Mn30   2.202       .  S
N2          C519   1.353       .  A
N3            N4   1.320       .  A
N3          N515   1.315   1_545  A
N3          Mn19   2.199       .  S
N4          C520   1.353       .  A
N5            N6   1.321       .  A
N5          N513   1.315       .  A
N5          Mn30   2.204       .  S
N6           C10   1.354       .  A
N7            N8   1.320       .  A
N7          N511   1.315   1_545  A
N7          Mn19   2.201       .  S
N8            C9   1.354       .  A
C9          N512   1.353   1_545  A
C9          C197   1.477       .  S
C10         N514   1.353       .  A
C10         C187   1.478       .  S
N11          N12   1.320       .  A
N11        N1037   1.315       .  A
N11         Mn41   2.202       .  S
N12          C20   1.354       .  A
N13          N14   1.320       .  A
N13        N1035   1.315   1_455  A
N13         Mn19   2.201       .  S
N14          C21   1.353   1_455  A
N15          N16   1.320       .  A
N15        N1033   1.315       .  A
N15         Mn41   2.203       .  S
N16        C1041   1.354       .  A
N17          N18   1.320       .  A
N17        N1031   1.315   1_455  A
N17         Mn19   2.200       .  S
N18        C1040   1.353   1_455  A
Mn19        Cl43   2.546   1_455  S
C20        N1038   1.353       .  A
C20         C217   1.477       .  S
C21        N1036   1.354       .  A
C21         C247   1.478       .  S
N22          N23   1.320       .  A
N22        N1048   1.315   1_455  A
N22         Mn30   2.202       .  S
N23        C1051   1.354   1_455  A
N24          N25   1.320       .  A
N24        N1046   1.315       .  A
N24         Mn42   2.200       .  S
N25        C1052   1.353       .  A
N26          N27   1.320       .  A
N26        N1044   1.315   1_455  A
N26         Mn30   2.202       .  S
N27          C32   1.354   1_455  A
N28          N29   1.320       .  A
N28        N1042   1.315       .  A
N28         Mn42   2.202       .  S
N29          C31   1.353       .  A
Mn30       Cl553   2.547   1_455  S
C31        N1043   1.354       .  A
C31         C227   1.478       .  S
C32        N1045   1.353       .  A
C32         C237   1.477       .  S
N33          N34   1.320       .  A
N33         N549   1.315   1_545  A
N33         Mn41   2.203       .  S
N34          C44   1.354       .  A
N35          N36   1.320       .  A
N35         N547   1.315       .  A
N35         Mn42   2.201       .  S
N36          C45   1.353       .  A
N37          N38   1.320       .  A
N37         N545   1.315   1_545  A
N37         Mn41   2.202       .  S
N38         C555   1.353       .  A
N39          N40   1.320       .  A
N39         N543   1.315       .  A
N39         Mn42   2.200       .  S
N40         C554   1.353       .  A
Mn41      Cl1063   2.547       .  S
Mn42      Cl1573   2.546       .  S
Cl43       Mn540   2.547   1_645  S
Cl43      Mn1061   2.547       .  S
Cl43      Mn1572   2.546   1_545  S
C44         N550   1.353   1_545  A
C44         C207   1.478       .  S
C45         N548   1.353       .  A
C45         C177   1.477       .  S
N46          N47   1.320       .  A
N46        N1072   1.315       .  A
N46         Mn75   2.202       .  S
N47        C1074   1.353       .  A
N48          N49   1.320       .  A
N48        N1070   1.315   1_455  A
N48         Mn64   2.201       .  S
N49        C1075   1.353   1_455  A
N50          N51   1.320       .  A
N50        N1068   1.315       .  A
N50         Mn75   2.201       .  S
N51          C55   1.354       .  A
N52          N53   1.321       .  A
N52        N1066   1.315   1_455  A
N52         Mn64   2.203       .  S
N53          C54   1.354   1_455  A
C54        N1067   1.353       .  A
C54         C250   1.478       .  S
C55        N1069   1.353       .  A
C55         C240   1.477       .  S
N56          N57   1.320       .  A
N56         N317   1.315       .  A
N56         Mn86   2.199       .  S
N57          C65   1.353       .  A
N58          N59   1.321       .  A
N58         N315   1.315   1_554  A
N58         Mn64   2.204       .  S
N59         C321   1.354   1_554  A
N60          N61   1.319       .  A
N60         N313   1.315       .  A
N60         Mn86   2.199       .  S
N61          C66   1.353       .  A
N62          N63   1.320       .  A
N62         N311   1.315   1_554  A
N62         Mn64   2.203       .  S
N63         C320   1.354   1_554  A
Mn64      Cl1363   2.546   1_454  S
C65         N318   1.354       .  A
C65         C157   1.477       .  S
C66         N314   1.354       .  A
C66         C167   1.476       .  S
N67          N68   1.320       .  A
N67         N328   1.315   1_554  A
N67         Mn75   2.204       .  S
N68         C331   1.354   1_554  A
N69          N70   1.319       .  A
N69         N326   1.315       .  A
N69         Mn87   2.199       .  S
N70          C77   1.353       .  A
N71          N72   1.321       .  A
N71         N324   1.315   1_554  A
N71         Mn75   2.202       .  S
N72         C332   1.354   1_554  A
N73          N74   1.320       .  A
N73         N322   1.315       .  A
N73         Mn87   2.201       .  S
N74          C76   1.354       .  A
Mn75       Cl343   2.546   1_554  S
C76         N323   1.354       .  A
C76         C137   1.478       .  S
C77         N327   1.354       .  A
C77         C147   1.476       .  S
N78          N79   1.320       .  A
N78        N1104   1.315   1_455  A
N78         Mn86   2.201       .  S
N79          C89   1.354   1_455  A
N80          N81   1.320       .  A
N80        N1102   1.315       .  A
N80         Mn87   2.202       .  S
N81          C90   1.354       .  A
N82          N83   1.320       .  A
N82        N1100   1.315   1_455  A
N82         Mn86   2.201       .  S
N83        C1110   1.353   1_455  A
N84          N85   1.320       .  A
N84        N1098   1.315       .  A
N84         Mn87   2.202       .  S
N85        C1109   1.353       .  A
Mn86      Cl1108   2.547   1_455  S
Mn87        Cl88   2.547       .  S
Cl88      Mn1339   2.546       .  S
Cl88       Mn330   2.546       .  S
Cl88      Mn1106   2.547       .  S
C89        N1105   1.353       .  A
C89         C220   1.477       .  S
C90        N1103   1.353       .  A
C90         C230   1.478       .  S
N91          N92   1.320       .  A
N91         N352   1.315       .  A
N91        Mn120   2.200       .  S
N92          C99   1.353       .  A
N93          N94   1.321       .  A
N93         N350   1.315   1_554  A
N93        Mn109   2.203       .  S
N94         C355   1.354   1_554  A
N95          N96   1.320       .  A
N95         N348   1.315       .  A
N95        Mn120   2.198       .  S
N96         C100   1.353       .  A
N97          N98   1.321       .  A
N97         N346   1.315   1_554  A
N97        Mn109   2.204       .  S
N98         C354   1.354   1_554  A
C99         N353   1.354       .  A
C99         C140   1.478       .  S
C100        N349   1.354       .  A
C100        C160   1.477       .  S
N101        N102   1.320       .  A
N101        N617   1.315   1_545  A
N101       Mn131   2.200       .  S
N102        C110   1.353       .  A
N103        N104   1.321       .  A
N103        N615   1.315       .  A
N103       Mn109   2.204       .  S
N104        C111   1.354       .  A
N105        N106   1.320       .  A
N105        N613   1.315   1_545  A
N105       Mn131   2.199       .  S
N106        C621   1.353       .  A
N107        N108   1.320       .  A
N107        N611   1.315       .  A
N107       Mn109   2.203       .  S
N108        C620   1.354       .  A
Mn109      Cl898   2.547   1_554  S
C110        N618   1.354   1_545  A
C110        C200   1.477       .  S
C111        N616   1.353       .  A
C111        C210   1.478       .  S
N112        N113   1.320       .  A
N112        N628   1.315       .  A
N112       Mn120   2.199       .  S
N113        C631   1.353       .  A
N114        N115   1.320       .  A
N114        N626   1.315   1_545  A
N114       Mn132   2.203       .  S
N115        C632   1.354       .  A
N116        N117   1.320       .  A
N116        N624   1.315       .  A
N116       Mn120   2.199       .  S
N117        C122   1.353       .  A
N118        N119   1.320       .  A
N118        N622   1.315   1_545  A
N118       Mn132   2.203       .  S
N119        C121   1.354       .  A
Mn120      Cl643   2.546       .  S
C121        N623   1.353   1_545  A
C121        C190   1.478       .  S
C122        N625   1.354       .  A
C122        C180   1.477       .  S
N123        N124   1.321       .  A
N123        N384   1.315   1_554  A
N123       Mn131   2.203       .  S
N124        C389   1.354   1_554  A
N125        N126   1.320       .  A
N125        N382   1.315       .  A
N125       Mn132   2.200       .  S
N126        C135   1.353       .  A
N127        N128   1.321       .  A
N127        N380   1.315   1_554  A
N127       Mn131   2.203       .  S
N128        C390   1.353   1_554  A
N129        N130   1.319       .  A
N129        N378   1.315       .  A
N129       Mn132   2.198       .  S
N130        C134   1.353       .  A
Mn131      Cl388   2.545   1_554  S
Mn132      Cl133   2.547       .  S
Cl133      Mn874   2.547   1_545  S
Cl133      Mn630   2.546   1_545  S
Cl133      Mn386   2.545       .  S
C134        N379   1.354       .  A
C134        C150   1.476       .  S
C135        N383   1.353       .  A
C135        C170   1.476       .  S
C136        C137   1.405       .  A
C136        C141   1.399       .  A
C136        H142   1.083       .  S
C137        C138   1.405       .  A
C138        C139   1.398       .  A
C138        H143   1.083       .  S
C139        C140   1.405       .  A
C139        H144   1.083       .  S
C140        C141   1.405       .  A
C141        H400   1.083       .  S
H145        C396   1.083       .  S
C146        C147   1.404       .  A
C146        C151   1.396       .  A
C146        H152   1.083       .  S
C147        C403   1.405       .  A
C148        C149   1.399       .  A
C148        C402   1.405   1_554  A
C148        H153   1.083       .  S
C149        C405   1.405   1_554  A
C149        H154   1.083       .  S
C150        C151   1.404       .  A
C150        C404   1.405       .  A
C151        H155   1.083       .  S
C156        C157   1.405       .  A
C156        C161   1.398       .  A
C156        H162   1.083       .  S
C157        C158   1.404       .  A
C158        C159   1.397       .  A
C158        H163   1.083       .  S
C159        C160   1.404       .  A
C159        H164   1.083       .  S
C160        C161   1.404       .  A
C161        H165   1.082       .  S
C166        C167   1.404       .  A
C166        C171   1.397       .  A
C166        H172   1.083       .  S
C167        C168   1.404       .  A
C168        C169   1.399       .  A
C168        H173   1.083       .  S
C169        C170   1.405       .  A
C169        H174   1.083       .  S
C170        C171   1.404       .  A
C171        H175   1.083       .  S
C176        C177   1.405       .  A
C176        C181   1.398       .  A
C176        H182   1.083       .  S
C177        C178   1.404       .  A
C178        C179   1.398       .  A
C178        H183   1.083       .  S
C179        C180   1.405       .  A
C179        H184   1.083       .  S
C180        C181   1.404       .  A
C181        H185   1.083       .  S
C186        C191   1.398       .  A
C186        C697   1.405       .  A
C186        H192   1.082       .  S
C187        C188   1.404       .  A
C187        C696   1.405       .  A
C188        C189   1.398       .  A
C188        H193   1.083       .  S
C189        C700   1.405       .  A
C189        H194   1.082       .  S
C190        C191   1.404       .  A
C190        C699   1.405   1_545  A
C191        H195   1.083       .  S
C196        C197   1.405   1_565  A
C196        C201   1.398       .  A
C196        H202   1.082       .  S
C197        C198   1.404       .  A
C198        C199   1.398       .  A
C198        H203   1.084       .  S
C199        C200   1.405       .  A
C199        H204   1.082       .  S
C200        C201   1.404   1_545  A
C201        H205   1.084       .  S
C206        C207   1.404       .  A
C206        C211   1.398       .  A
C206        H212   1.083       .  S
C207        C718   1.405   1_545  A
C208        C209   1.398       .  A
C208        C717   1.405       .  A
C208        H213   1.083       .  S
C209        C210   1.404       .  A
C209        H214   1.083       .  S
C210        C721   1.405       .  A
C211        C720   1.405       .  A
C211        H215   1.083       .  S
C216        C221   1.398       .  A
C216       C1237   1.405   1_455  A
C216        H222   1.082       .  S
C217        C218   1.404       .  A
C217       C1236   1.405       .  A
C218        C219   1.398       .  A
C218        H223   1.084       .  S
C219       C1240   1.405       .  A
C219        H224   1.082       .  S
C220        C221   1.404   1_655  A
C220       C1239   1.405       .  A
C221        H225   1.084       .  S
C226        C231   1.398       .  A
C226       C1247   1.404   1_455  A
C226        H232   1.083       .  S
C227        C228   1.405       .  A
C227       C1246   1.404       .  A
C228        C229   1.398       .  A
C228        H233   1.083       .  S
C229        C230   1.405       .  A
C229        H234   1.083       .  S
C230       C1251   1.405       .  A
C231       C1250   1.405   1_455  A
C231        H235   1.083       .  S
C236        C241   1.397       .  A
C236       C1257   1.405       .  A
C236        H242   1.083       .  S
C237        C238   1.404   1_655  A
C237       C1256   1.405       .  A
C238        C239   1.398       .  A
C238        H243   1.083       .  S
C239       C1260   1.405   1_455  A
C239        H244   1.083       .  S
C240        C241   1.404       .  A
C240       C1259   1.405       .  A
C241        H245   1.083       .  S
C246        C247   1.405   1_455  A
C246        C251   1.398       .  A
C246        H252   1.083       .  S
C247       C1268   1.404       .  A
C248        C249   1.398       .  A
C248       C1267   1.404       .  A
C248        H253   1.083       .  S
C249       C1270   1.405       .  A
C249        H254   1.083       .  S
C250        C251   1.405   1_655  A
C250       C1269   1.405       .  A
C251        H255   1.083       .  S
N256        N257   1.320       .  A
N256        N772   1.315       .  A
N256       Mn285   2.202       .  S
N257        C774   1.353       .  A
N258        N770   1.315   1_545  A
N258        N259   1.320       .  A
N258       Mn274   2.199       .  S
N259        C775   1.353       .  A
N260        N768   1.315       .  A
N260        N261   1.321       .  A
N260       Mn285   2.204       .  S
N261        C265   1.354       .  A
N262        N766   1.315   1_545  A
N262        N263   1.320       .  A
N262       Mn274   2.201       .  S
N263        C264   1.354       .  A
C264        N767   1.353   1_545  A
C264        C452   1.477       .  S
C265        N769   1.353       .  A
C265        C442   1.478       .  S
N266       N1292   1.315       .  A
N266        N267   1.320       .  A
N266       Mn296   2.202       .  S
N267        C275   1.354       .  A
N268        N269   1.320       .  A
N268       N1290   1.315   1_455  A
N268       Mn274   2.201       .  S
N269        C276   1.353   1_455  A
N270       N1288   1.315       .  A
N270        N271   1.320       .  A
N270       Mn296   2.203       .  S
N271       C1296   1.354       .  A
N272       N1286   1.315   1_455  A
N272        N273   1.320       .  A
N272       Mn274   2.200       .  S
N273       C1295   1.353   1_455  A
Mn274      Cl298   2.546   1_455  S
C275       N1293   1.353       .  A
C275        C472   1.477       .  S
C276       N1291   1.354       .  A
C276        C502   1.478       .  S
N277        N278   1.320       .  A
N277       N1303   1.315   1_455  A
N277       Mn285   2.202       .  S
N278       C1306   1.354   1_455  A
N279       N1301   1.315       .  A
N279        N280   1.320       .  A
N279       Mn297   2.200       .  S
N280       C1307   1.353       .  A
N281       N1299   1.315   1_455  A
N281        N282   1.320       .  A
N281       Mn285   2.202       .  S
N282        C287   1.354   1_455  A
N283       N1297   1.315       .  A
N283        N284   1.320       .  A
N283       Mn297   2.202       .  S
N284        C286   1.353       .  A
Mn285      Cl808   2.547   1_455  S
C286       N1298   1.354       .  A
C286        C482   1.478       .  S
C287       N1300   1.353       .  A
C287        C492   1.477       .  S
N288        N289   1.320       .  A
N288        N804   1.315   1_545  A
N288       Mn296   2.203       .  S
N289        C299   1.354       .  A
N290        N291   1.320       .  A
N290        N802   1.315       .  A
N290       Mn297   2.201       .  S
N291        C300   1.353       .  A
N292        N800   1.315   1_545  A
N292        N293   1.320       .  A
N292       Mn296   2.202       .  S
N293        C810   1.353       .  A
N294        N798   1.315       .  A
N294        N295   1.320       .  A
N294       Mn297   2.200       .  S
N295        C809   1.353       .  A
Mn296     Cl1318   2.547       .  S
Mn297     Cl1828   2.546       .  S
Cl298      Mn795   2.547   1_645  S
Cl298     Mn1316   2.547       .  S
Cl298     Mn1827   2.546   1_545  S
C299        N805   1.353   1_545  A
C299        C462   1.478       .  S
C300        N803   1.353       .  A
C300        C432   1.477       .  S
N301        N302   1.320       .  A
N301       N1327   1.315       .  A
N301       Mn330   2.202       .  S
N302       C1329   1.353       .  A
N303       N1325   1.315   1_455  A
N303        N304   1.320       .  A
N303       Mn319   2.201       .  S
N304       C1330   1.353   1_455  A
N305       N1323   1.315       .  A
N305        N306   1.320       .  A
N305       Mn330   2.201       .  S
N306        C310   1.354       .  A
N307       N1321   1.315   1_455  A
N307        N308   1.321       .  A
N307       Mn319   2.203       .  S
N308        C309   1.354   1_455  A
C309       N1322   1.353       .  A
C309        C505   1.478       .  S
C310       N1324   1.353       .  A
C310        C495   1.477       .  S
N311        N312   1.320       .  A
N311       Mn341   2.199       .  S
N312        C320   1.353       .  A
N313        N314   1.321       .  A
N313       Mn319   2.204       .  S
N315        N316   1.319       .  A
N315       Mn341   2.199       .  S
N316        C321   1.353       .  A
N317        N318   1.320       .  A
N317       Mn319   2.203       .  S
Mn319     Cl1108   2.546   1_455  S
C320        C412   1.477       .  S
C321        C422   1.476       .  S
N322        N323   1.320       .  A
N322       Mn330   2.204       .  S
N324        N325   1.319       .  A
N324       Mn342   2.199       .  S
N325        C332   1.353       .  A
N326        N327   1.321       .  A
N326       Mn330   2.202       .  S
N328        N329   1.320       .  A
N328       Mn342   2.201       .  S
N329        C331   1.354       .  A
C331        C392   1.478       .  S
C332        C402   1.476       .  S
N333        N334   1.320       .  A
N333       N1359   1.315   1_455  A
N333       Mn341   2.201       .  S
N334        C344   1.354   1_455  A
N335        N336   1.320       .  A
N335       N1357   1.315       .  A
N335       Mn342   2.202       .  S
N336        C345   1.354       .  A
N337       N1355   1.315   1_455  A
N337        N338   1.320       .  A
N337       Mn341   2.201       .  S
N338       C1365   1.353   1_455  A
N339       N1353   1.315       .  A
N339        N340   1.320       .  A
N339       Mn342   2.202       .  S
N340       C1364   1.353       .  A
Mn341     Cl1363   2.547   1_455  S
Mn342      Cl343   2.547       .  S
Cl343     Mn1084   2.546   1_556  S
Cl343     Mn1361   2.547       .  S
C344       N1360   1.353       .  A
C344        C475   1.477       .  S
C345       N1358   1.353       .  A
C345        C485   1.478       .  S
N346        N347   1.320       .  A
N346       Mn375   2.200       .  S
N347        C354   1.353       .  A
N348        N349   1.321       .  A
N348       Mn364   2.203       .  S
N350        N351   1.320       .  A
N350       Mn375   2.198       .  S
N351        C355   1.353       .  A
N352        N353   1.321       .  A
N352       Mn364   2.204       .  S
C354        C395   1.478       .  S
C355        C415   1.477       .  S
N356        N872   1.315   1_545  A
N356        N357   1.320       .  A
N356       Mn386   2.200       .  S
N357        C365   1.353       .  A
N358        N359   1.321       .  A
N358        N870   1.315       .  A
N358       Mn364   2.204       .  S
N359        C366   1.354       .  A
N360        N868   1.315   1_545  A
N360        N361   1.320       .  A
N360       Mn386   2.199       .  S
N361        C876   1.353       .  A
N362        N866   1.315       .  A
N362        N363   1.320       .  A
N362       Mn364   2.203       .  S
N363        C875   1.354       .  A
Mn364      Cl643   2.547       .  S
C365        N873   1.354   1_545  A
C365        C455   1.477       .  S
C366        N871   1.353       .  A
C366        C465   1.478       .  S
N367        N368   1.320       .  A
N367        N883   1.315       .  A
N367       Mn375   2.199       .  S
N368        C886   1.353       .  A
N369        N881   1.315   1_545  A
N369        N370   1.320       .  A
N369       Mn387   2.203       .  S
N370        C887   1.354       .  A
N371        N879   1.315       .  A
N371        N372   1.320       .  A
N371       Mn375   2.199       .  S
N372        C377   1.353       .  A
N373        N877   1.315   1_545  A
N373        N374   1.320       .  A
N373       Mn387   2.203       .  S
N374        C376   1.354       .  A
Mn375      Cl898   2.546       .  S
C376        N878   1.353   1_545  A
C376        C445   1.478       .  S
C377        N880   1.354       .  A
C377        C435   1.477       .  S
N378        N379   1.321       .  A
N378       Mn386   2.203       .  S
N380        N381   1.320       .  A
N380       Mn387   2.200       .  S
N381        C390   1.353       .  A
N382        N383   1.321       .  A
N382       Mn386   2.203       .  S
N384        N385   1.319       .  A
N384       Mn387   2.198       .  S
N385        C389   1.353       .  A
Mn387      Cl388   2.547       .  S
Cl388      Mn619   2.547   1_546  S
Cl388      Mn885   2.546   1_545  S
C389        C405   1.476       .  S
C390        C425   1.476       .  S
C391        C392   1.405   1_554  A
C391        C396   1.399       .  A
C391        H397   1.083       .  S
C392        C393   1.405       .  A
C393        C394   1.398       .  A
C393        H398   1.083       .  S
C394        C395   1.405       .  A
C394        H399   1.083       .  S
C395        C396   1.405   1_556  A
C401        C402   1.404       .  A
C401        C406   1.396       .  A
C401        H407   1.083       .  S
C403        C404   1.399       .  A
C403        H408   1.083       .  S
C404        H409   1.083       .  S
C405        C406   1.404       .  A
C406        H410   1.083       .  S
C411        C412   1.405   1_554  A
C411        C416   1.398       .  A
C411        H417   1.083       .  S
C412        C413   1.404       .  A
C413        C414   1.397       .  A
C413        H418   1.083       .  S
C414        C415   1.404       .  A
C414        H419   1.083       .  S
C415        C416   1.404   1_556  A
C416        H420   1.082       .  S
C421        C422   1.404       .  A
C421        C426   1.397       .  A
C421        H427   1.083       .  S
C422        C423   1.404   1_556  A
C423        C424   1.399       .  A
C423        H428   1.083       .  S
C424        C425   1.405   1_554  A
C424        H429   1.083       .  S
C425        C426   1.404       .  A
C426        H430   1.083       .  S
C431        C432   1.405       .  A
C431        C436   1.398       .  A
C431        H437   1.083       .  S
C432        C433   1.404       .  A
C433        C434   1.398       .  A
C433        H438   1.083       .  S
C434        C435   1.405       .  A
C434        H439   1.083       .  S
C435        C436   1.404       .  A
C436        H440   1.083       .  S
C441        C952   1.405       .  A
C441        C446   1.398       .  A
C441        H447   1.083       .  S
C442        C951   1.405       .  A
C442        C443   1.404       .  A
C443        C444   1.398       .  A
C443        H448   1.083       .  S
C444        C955   1.405       .  A
C444        H449   1.082       .  S
C445        C954   1.405   1_545  A
C445        C446   1.404       .  A
C446        H450   1.083       .  S
C451        C452   1.405   1_565  A
C451        C456   1.398       .  A
C451        H457   1.082       .  S
C452        C453   1.404       .  A
C453        C454   1.398       .  A
C453        H458   1.084       .  S
C454        C455   1.405       .  A
C454        H459   1.082       .  S
C455        C456   1.404   1_545  A
C456        H460   1.084       .  S
C461        C462   1.404       .  A
C461        C466   1.398       .  A
C461        H467   1.083       .  S
C462        C973   1.405   1_545  A
C463        C972   1.405       .  A
C463        C464   1.398       .  A
C463        H468   1.083       .  S
C464        C465   1.404       .  A
C464        H469   1.083       .  S
C465        C976   1.405       .  A
C466        C975   1.405       .  A
C466        H470   1.083       .  S
C471       C1492   1.405   1_455  A
C471        C476   1.398       .  A
C471        H477   1.082       .  S
C472       C1491   1.405       .  A
C472        C473   1.404       .  A
C473        C474   1.398       .  A
C473        H478   1.084       .  S
C474       C1495   1.405       .  A
C474        H479   1.082       .  S
C475       C1494   1.405       .  A
C475        C476   1.404   1_655  A
C476        H480   1.084       .  S
C481       C1502   1.404   1_455  A
C481        C486   1.398       .  A
C481        H487   1.083       .  S
C482       C1501   1.404       .  A
C482        C483   1.405       .  A
C483        C484   1.398       .  A
C483        H488   1.083       .  S
C484        C485   1.405       .  A
C484        H489   1.083       .  S
C485       C1506   1.405       .  A
C486       C1505   1.405   1_455  A
C486        H490   1.083       .  S
C491       C1512   1.405       .  A
C491        C496   1.397       .  A
C491        H497   1.083       .  S
C492       C1511   1.405       .  A
C492        C493   1.404   1_655  A
C493        C494   1.398       .  A
C493        H498   1.083       .  S
C494       C1515   1.405   1_455  A
C494        H499   1.083       .  S
C495       C1514   1.405       .  A
C495        C496   1.404       .  A
C496        H500   1.083       .  S
C501        C502   1.405   1_455  A
C501        C506   1.398       .  A
C501        H507   1.083       .  S
C502       C1523   1.404       .  A
C503       C1522   1.404       .  A
C503        C504   1.398       .  A
C503        H508   1.083       .  S
C504       C1525   1.405       .  A
C504        H509   1.083       .  S
C505       C1524   1.405       .  A
C505        C506   1.405   1_655  A
C506        H510   1.083       .  S
N511        N512   1.320       .  A
N511       Mn540   2.202       .  S
N513        N514   1.320       .  A
N513       Mn529   2.199       .  S
N515        N516   1.321       .  A
N515       Mn540   2.204       .  S
N516        C520   1.354   1_565  A
N517        N518   1.320       .  A
N517       Mn529   2.201       .  S
N518        C519   1.354       .  A
C519        C707   1.477       .  S
C520        C697   1.478       .  S
N521       N1547   1.315       .  A
N521        N522   1.320       .  A
N521       Mn551   2.202       .  S
N522        C530   1.354       .  A
N523        N524   1.320       .  A
N523       N1545   1.315   1_455  A
N523       Mn529   2.201       .  S
N524        C531   1.353   1_455  A
N525       N1543   1.315       .  A
N525        N526   1.320       .  A
N525       Mn551   2.203       .  S
N526       C1551   1.354       .  A
N527       N1541   1.315   1_455  A
N527        N528   1.320       .  A
N527       Mn529   2.200       .  S
N528       C1550   1.353   1_455  A
Mn529      Cl553   2.546   1_455  S
C530       N1548   1.353       .  A
C530        C727   1.477       .  S
C531       N1546   1.354       .  A
C531        C757   1.478       .  S
N532        N533   1.320       .  A
N532       N1558   1.315   1_455  A
N532       Mn540   2.202       .  S
N533       C1561   1.354   1_455  A
N534       N1556   1.315       .  A
N534        N535   1.320       .  A
N534       Mn552   2.200       .  S
N535       C1562   1.353       .  A
N536       N1554   1.315   1_455  A
N536        N537   1.320       .  A
N536       Mn540   2.202       .  S
N537        C542   1.354   1_455  A
N538       N1552   1.315       .  A
N538        N539   1.320       .  A
N538       Mn552   2.202       .  S
N539        C541   1.353       .  A
C541       N1553   1.354       .  A
C541        C737   1.478       .  S
C542       N1555   1.353       .  A
C542        C747   1.477       .  S
N543        N544   1.320       .  A
N543       Mn551   2.203       .  S
N544        C554   1.354       .  A
N545        N546   1.320       .  A
N545       Mn552   2.201       .  S
N546        C555   1.353   1_565  A
N547        N548   1.320       .  A
N547       Mn551   2.202       .  S
N549        N550   1.320       .  A
N549       Mn552   2.200       .  S
Mn551     Cl1573   2.547       .  S
Mn552     Cl1063   2.546   1_565  S
Cl553     Mn1571   2.547       .  S
Cl553     Mn1062   2.546       .  S
C554        C717   1.478       .  S
C555        C687   1.477   1_545  S
N556        N557   1.320       .  A
N556       N1582   1.315       .  A
N556       Mn585   2.202       .  S
N557       C1584   1.353       .  A
N558       N1580   1.315   1_455  A
N558        N559   1.320       .  A
N558       Mn574   2.201       .  S
N559       C1585   1.353   1_455  A
N560       N1578   1.315       .  A
N560        N561   1.320       .  A
N560       Mn585   2.201       .  S
N561        C565   1.354       .  A
N562       N1576   1.315   1_455  A
N562        N563   1.321       .  A
N562       Mn574   2.203       .  S
N563        C564   1.354   1_455  A
C564       N1577   1.353       .  A
C564        C760   1.478       .  S
C565       N1579   1.353       .  A
C565        C750   1.477       .  S
N566        N827   1.315       .  A
N566        N567   1.320       .  A
N566       Mn596   2.199       .  S
N567        C575   1.353       .  A
N568        N569   1.321       .  A
N568        N825   1.315   1_554  A
N568       Mn574   2.204       .  S
N569        C831   1.354   1_554  A
N570        N823   1.315       .  A
N570        N571   1.319       .  A
N570       Mn596   2.199       .  S
N571        C576   1.353       .  A
N572        N821   1.315   1_554  A
N572        N573   1.320       .  A
N572       Mn574   2.203       .  S
N573        C830   1.354   1_554  A
Mn574     Cl1873   2.546   1_454  S
C575        N828   1.354       .  A
C575        C667   1.477       .  S
C576        N824   1.354       .  A
C576        C677   1.476       .  S
N577        N578   1.320       .  A
N577        N838   1.315   1_554  A
N577       Mn585   2.204       .  S
N578        C841   1.354   1_554  A
N579        N836   1.315       .  A
N579        N580   1.319       .  A
N579       Mn597   2.199       .  S
N580        C587   1.353       .  A
N581        N834   1.315   1_554  A
N581        N582   1.321       .  A
N581       Mn585   2.202       .  S
N582        C842   1.354   1_554  A
N583        N832   1.315       .  A
N583        N584   1.320       .  A
N583       Mn597   2.201       .  S
N584        C586   1.354       .  A
Mn585      Cl853   2.546   1_554  S
C586        N833   1.354       .  A
C586        C647   1.478       .  S
C587        N837   1.354       .  A
C587        C657   1.476       .  S
N588        N589   1.320       .  A
N588       N1614   1.315   1_455  A
N588       Mn596   2.201       .  S
N589        C599   1.354   1_455  A
N590        N591   1.320       .  A
N590       N1612   1.315       .  A
N590       Mn597   2.202       .  S
N591        C600   1.354       .  A
N592       N1610   1.315   1_455  A
N592        N593   1.320       .  A
N592       Mn596   2.201       .  S
N593       C1620   1.353   1_455  A
N594       N1608   1.315       .  A
N594        N595   1.320       .  A
N594       Mn597   2.202       .  S
N595       C1619   1.353       .  A
Mn596     Cl1618   2.547   1_455  S
Mn597      Cl598   2.547       .  S
Cl598     Mn1849   2.546       .  S
Cl598      Mn840   2.546       .  S
Cl598     Mn1616   2.547       .  S
C599       N1615   1.353       .  A
C599        C730   1.477       .  S
C600       N1613   1.353       .  A
C600        C740   1.478       .  S
N601        N602   1.320       .  A
N601        N862   1.315       .  A
N601       Mn630   2.200       .  S
N602        C609   1.353       .  A
N603        N860   1.315   1_554  A
N603        N604   1.321       .  A
N603       Mn619   2.203       .  S
N604        C865   1.354   1_554  A
N605        N858   1.315       .  A
N605        N606   1.320       .  A
N605       Mn630   2.198       .  S
N606        C610   1.353       .  A
N607        N856   1.315   1_554  A
N607        N608   1.321       .  A
N607       Mn619   2.204       .  S
N608        C864   1.354   1_554  A
C609        N863   1.354       .  A
C609        C650   1.478       .  S
C610        N859   1.354       .  A
C610        C670   1.477       .  S
N611        N612   1.320       .  A
N611       Mn641   2.200       .  S
N612        C620   1.353       .  A
N613        N614   1.321       .  A
N613       Mn619   2.204       .  S
N614        C621   1.354   1_565  A
N615        N616   1.320       .  A
N615       Mn641   2.199       .  S
N617        N618   1.320       .  A
N617       Mn619   2.203       .  S
C620        C710   1.477       .  S
C621        C720   1.478       .  S
N622        N623   1.320       .  A
N622       Mn630   2.199       .  S
N624        N625   1.320       .  A
N624       Mn642   2.203       .  S
N626        N627   1.320       .  A
N626       Mn630   2.199       .  S
N627        C632   1.353   1_565  A
N628        N629   1.320       .  A
N628       Mn642   2.203       .  S
N629        C631   1.354       .  A
C631        C700   1.478       .  S
C632        C690   1.477       .  S
N633        N634   1.321       .  A
N633        N894   1.315   1_554  A
N633       Mn641   2.203       .  S
N634        C899   1.354   1_554  A
N635        N636   1.320       .  A
N635        N892   1.315       .  A
N635       Mn642   2.200       .  S
N636        C645   1.353       .  A
N637        N890   1.315   1_554  A
N637        N638   1.321       .  A
N637       Mn641   2.203       .  S
N638        C900   1.353   1_554  A
N639        N888   1.315       .  A
N639        N640   1.319       .  A
N639       Mn642   2.198       .  S
N640        C644   1.353       .  A
Mn641      Cl898   2.545   1_554  S
Mn642      Cl643   2.547       .  S
Cl643      Mn896   2.545       .  S
C644        N889   1.354       .  A
C644        C660   1.476       .  S
C645        N893   1.353       .  A
C645        C680   1.476       .  S
C646        C647   1.405       .  A
C646        C651   1.399       .  A
C646        H652   1.083       .  S
C647        C648   1.405       .  A
C648        C649   1.398       .  A
C648        H653   1.083       .  S
C649        C650   1.405       .  A
C649        H654   1.083       .  S
C650        C651   1.405       .  A
C651        H910   1.083       .  S
H655        C906   1.083       .  S
C656        C657   1.404       .  A
C656        C661   1.396       .  A
C656        H662   1.083       .  S
C657        C913   1.405       .  A
C658        C912   1.405   1_554  A
C658        C659   1.399       .  A
C658        H663   1.083       .  S
C659        C915   1.405   1_554  A
C659        H664   1.083       .  S
C660        C914   1.405       .  A
C660        C661   1.404       .  A
C661        H665   1.083       .  S
C666        C667   1.405       .  A
C666        C671   1.398       .  A
C666        H672   1.083       .  S
C667        C668   1.404       .  A
C668        C669   1.397       .  A
C668        H673   1.083       .  S
C669        C670   1.404       .  A
C669        H674   1.083       .  S
C670        C671   1.404       .  A
C671        H675   1.082       .  S
C676        C677   1.404       .  A
C676        C681   1.397       .  A
C676        H682   1.083       .  S
C677        C678   1.404       .  A
C678        C679   1.399       .  A
C678        H683   1.083       .  S
C679        C680   1.405       .  A
C679        H684   1.083       .  S
C680        C681   1.404       .  A
C681        H685   1.083       .  S
C686        C687   1.405   1_545  A
C686        C691   1.398       .  A
C686        H692   1.083       .  S
C687        C688   1.404       .  A
C688        C689   1.398       .  A
C688        H693   1.083       .  S
C689        C690   1.405   1_565  A
C689        H694   1.083       .  S
C690        C691   1.404       .  A
C691        H695   1.083       .  S
C696        C701   1.398       .  A
C696        H702   1.082       .  S
C697        C698   1.404   1_545  A
C698        C699   1.398       .  A
C698        H703   1.083       .  S
C699        H704   1.082       .  S
C700        C701   1.404       .  A
C701        H705   1.083       .  S
C706        C707   1.405       .  A
C706        C711   1.398       .  A
C706        H712   1.082       .  S
C707        C708   1.404       .  A
C708        C709   1.398       .  A
C708        H713   1.084       .  S
C709        C710   1.405       .  A
C709        H714   1.082       .  S
C710        C711   1.404       .  A
C711        H715   1.084       .  S
C716        C717   1.404       .  A
C716        C721   1.398       .  A
C716        H722   1.083       .  S
C718        C719   1.398       .  A
C718        H723   1.083       .  S
C719        C720   1.404   1_565  A
C719        H724   1.083       .  S
C721        H725   1.083       .  S
C726       C1747   1.405   1_455  A
C726        C731   1.398       .  A
C726        H732   1.082       .  S
C727       C1746   1.405       .  A
C727        C728   1.404       .  A
C728        C729   1.398       .  A
C728        H733   1.084       .  S
C729       C1750   1.405       .  A
C729        H734   1.082       .  S
C730       C1749   1.405       .  A
C730        C731   1.404   1_655  A
C731        H735   1.084       .  S
C736       C1757   1.404   1_455  A
C736        C741   1.398       .  A
C736        H742   1.083       .  S
C737       C1756   1.404       .  A
C737        C738   1.405       .  A
C738        C739   1.398       .  A
C738        H743   1.083       .  S
C739        C740   1.405       .  A
C739        H744   1.083       .  S
C740       C1761   1.405       .  A
C741       C1760   1.405   1_455  A
C741        H745   1.083       .  S
C746       C1767   1.405       .  A
C746        C751   1.397       .  A
C746        H752   1.083       .  S
C747       C1766   1.405       .  A
C747        C748   1.404   1_655  A
C748        C749   1.398       .  A
C748        H753   1.083       .  S
C749       C1770   1.405   1_455  A
C749        H754   1.083       .  S
C750       C1769   1.405       .  A
C750        C751   1.404       .  A
C751        H755   1.083       .  S
C756        C757   1.405   1_455  A
C756        C761   1.398       .  A
C756        H762   1.083       .  S
C757       C1778   1.404       .  A
C758       C1777   1.404       .  A
C758        C759   1.398       .  A
C758        H763   1.083       .  S
C759       C1780   1.405       .  A
C759        H764   1.083       .  S
C760       C1779   1.405       .  A
C760        C761   1.405   1_655  A
C761        H765   1.083       .  S
N766        N767   1.320       .  A
N766       Mn795   2.202       .  S
N768        N769   1.320       .  A
N768       Mn784   2.199       .  S
N770        N771   1.321       .  A
N770       Mn795   2.204       .  S
N771        C775   1.354   1_565  A
N772        N773   1.320       .  A
N772       Mn784   2.201       .  S
N773        C774   1.354       .  A
C774        C962   1.477       .  S
C775        C952   1.478       .  S
N776       N1802   1.315       .  A
N776        N777   1.320       .  A
N776       Mn806   2.202       .  S
N777        C785   1.354       .  A
N778        N779   1.320       .  A
N778       N1800   1.315   1_455  A
N778       Mn784   2.201       .  S
N779        C786   1.353   1_455  A
N780       N1798   1.315       .  A
N780        N781   1.320       .  A
N780       Mn806   2.203       .  S
N781       C1806   1.354       .  A
N782       N1796   1.315   1_455  A
N782        N783   1.320       .  A
N782       Mn784   2.200       .  S
N783       C1805   1.353   1_455  A
Mn784      Cl808   2.546   1_455  S
C785       N1803   1.353       .  A
C785        C982   1.477       .  S
C786       N1801   1.354       .  A
C786       C1012   1.478       .  S
N787        N788   1.320       .  A
N787       N1813   1.315   1_455  A
N787       Mn795   2.202       .  S
N788       C1816   1.354   1_455  A
N789       N1811   1.315       .  A
N789        N790   1.320       .  A
N789       Mn807   2.200       .  S
N790       C1817   1.353       .  A
N791       N1809   1.315   1_455  A
N791        N792   1.320       .  A
N791       Mn795   2.202       .  S
N792        C797   1.354   1_455  A
N793       N1807   1.315       .  A
N793        N794   1.320       .  A
N793       Mn807   2.202       .  S
N794        C796   1.353       .  A
C796       N1808   1.354       .  A
C796        C992   1.478       .  S
C797       N1810   1.353       .  A
C797       C1002   1.477       .  S
N798        N799   1.320       .  A
N798       Mn806   2.203       .  S
N799        C809   1.354       .  A
N800        N801   1.320       .  A
N800       Mn807   2.201       .  S
N801        C810   1.353   1_565  A
N802        N803   1.320       .  A
N802       Mn806   2.202       .  S
N804        N805   1.320       .  A
N804       Mn807   2.200       .  S
Mn806     Cl1828   2.547       .  S
Mn807     Cl1318   2.546   1_565  S
Cl808     Mn1826   2.547       .  S
Cl808     Mn1317   2.546       .  S
C809        C972   1.478       .  S
C810        C942   1.477   1_545  S
N811        N812   1.320       .  A
N811       N1837   1.315       .  A
N811       Mn840   2.202       .  S
N812       C1839   1.353       .  A
N813       N1835   1.315   1_455  A
N813        N814   1.320       .  A
N813       Mn829   2.201       .  S
N814       C1840   1.353   1_455  A
N815       N1833   1.315       .  A
N815        N816   1.320       .  A
N815       Mn840   2.201       .  S
N816        C820   1.354       .  A
N817       N1831   1.315   1_455  A
N817        N818   1.321       .  A
N817       Mn829   2.203       .  S
N818        C819   1.354   1_455  A
C819       N1832   1.353       .  A
C819       C1015   1.478       .  S
C820       N1834   1.353       .  A
C820       C1005   1.477       .  S
N821        N822   1.320       .  A
N821       Mn851   2.199       .  S
N822        C830   1.353       .  A
N823        N824   1.321       .  A
N823       Mn829   2.204       .  S
N825        N826   1.319       .  A
N825       Mn851   2.199       .  S
N826        C831   1.353       .  A
N827        N828   1.320       .  A
N827       Mn829   2.203       .  S
Mn829     Cl1618   2.546   1_455  S
C830        C922   1.477       .  S
C831        C932   1.476       .  S
N832        N833   1.320       .  A
N832       Mn840   2.204       .  S
N834        N835   1.319       .  A
N834       Mn852   2.199       .  S
N835        C842   1.353       .  A
N836        N837   1.321       .  A
N836       Mn840   2.202       .  S
N838        N839   1.320       .  A
N838       Mn852   2.201       .  S
N839        C841   1.354       .  A
C841        C902   1.478       .  S
C842        C912   1.476       .  S
N843        N844   1.320       .  A
N843       N1869   1.315   1_455  A
N843       Mn851   2.201       .  S
N844        C854   1.354   1_455  A
N845        N846   1.320       .  A
N845       N1867   1.315       .  A
N845       Mn852   2.202       .  S
N846        C855   1.354       .  A
N847       N1865   1.315   1_455  A
N847        N848   1.320       .  A
N847       Mn851   2.201       .  S
N848       C1875   1.353   1_455  A
N849       N1863   1.315       .  A
N849        N850   1.320       .  A
N849       Mn852   2.202       .  S
N850       C1874   1.353       .  A
Mn851     Cl1873   2.547   1_455  S
Mn852      Cl853   2.547       .  S
Cl853     Mn1594   2.546   1_556  S
Cl853     Mn1871   2.547       .  S
C854       N1870   1.353       .  A
C854        C985   1.477       .  S
C855       N1868   1.353       .  A
C855        C995   1.478       .  S
N856        N857   1.320       .  A
N856       Mn885   2.200       .  S
N857        C864   1.353       .  A
N858        N859   1.321       .  A
N858       Mn874   2.203       .  S
N860        N861   1.320       .  A
N860       Mn885   2.198       .  S
N861        C865   1.353       .  A
N862        N863   1.321       .  A
N862       Mn874   2.204       .  S
C864        C905   1.478       .  S
C865        C925   1.477       .  S
N866        N867   1.320       .  A
N866       Mn896   2.200       .  S
N867        C875   1.353       .  A
N868        N869   1.321       .  A
N868       Mn874   2.204       .  S
N869        C876   1.354   1_565  A
N870        N871   1.320       .  A
N870       Mn896   2.199       .  S
N872        N873   1.320       .  A
N872       Mn874   2.203       .  S
C875        C965   1.477       .  S
C876        C975   1.478       .  S
N877        N878   1.320       .  A
N877       Mn885   2.199       .  S
N879        N880   1.320       .  A
N879       Mn897   2.203       .  S
N881        N882   1.320       .  A
N881       Mn885   2.199       .  S
N882        C887   1.353   1_565  A
N883        N884   1.320       .  A
N883       Mn897   2.203       .  S
N884        C886   1.354       .  A
C886        C955   1.478       .  S
C887        C945   1.477       .  S
N888        N889   1.321       .  A
N888       Mn896   2.203       .  S
N890        N891   1.320       .  A
N890       Mn897   2.200       .  S
N891        C900   1.353       .  A
N892        N893   1.321       .  A
N892       Mn896   2.203       .  S
N894        N895   1.319       .  A
N894       Mn897   2.198       .  S
N895        C899   1.353       .  A
Mn897      Cl898   2.547       .  S
C899        C915   1.476       .  S
C900        C935   1.476       .  S
C901        C902   1.405   1_554  A
C901        C906   1.399       .  A
C901        H907   1.083       .  S
C902        C903   1.405       .  A
C903        C904   1.398       .  A
C903        H908   1.083       .  S
C904        C905   1.405       .  A
C904        H909   1.083       .  S
C905        C906   1.405   1_556  A
C911        C912   1.404       .  A
C911        C916   1.396       .  A
C911        H917   1.083       .  S
C913        C914   1.399       .  A
C913        H918   1.083       .  S
C914        H919   1.083       .  S
C915        C916   1.404       .  A
C916        H920   1.083       .  S
C921        C922   1.405   1_554  A
C921        C926   1.398       .  A
C921        H927   1.083       .  S
C922        C923   1.404       .  A
C923        C924   1.397       .  A
C923        H928   1.083       .  S
C924        C925   1.404       .  A
C924        H929   1.083       .  S
C925        C926   1.404   1_556  A
C926        H930   1.082       .  S
C931        C932   1.404       .  A
C931        C936   1.397       .  A
C931        H937   1.083       .  S
C932        C933   1.404   1_556  A
C933        C934   1.399       .  A
C933        H938   1.083       .  S
C934        C935   1.405   1_554  A
C934        H939   1.083       .  S
C935        C936   1.404       .  A
C936        H940   1.083       .  S
C941        C942   1.405   1_545  A
C941        C946   1.398       .  A
C941        H947   1.083       .  S
C942        C943   1.404       .  A
C943        C944   1.398       .  A
C943        H948   1.083       .  S
C944        C945   1.405   1_565  A
C944        H949   1.083       .  S
C945        C946   1.404       .  A
C946        H950   1.083       .  S
C951        C956   1.398       .  A
C951        H957   1.083       .  S
C952        C953   1.404   1_545  A
C953        C954   1.398       .  A
C953        H958   1.083       .  S
C954        H959   1.082       .  S
C955        C956   1.404       .  A
C956        H960   1.083       .  S
C961        C962   1.405       .  A
C961        C966   1.398       .  A
C961        H967   1.082       .  S
C962        C963   1.404       .  A
C963        C964   1.398       .  A
C963        H968   1.084       .  S
C964        C965   1.405       .  A
C964        H969   1.082       .  S
C965        C966   1.404       .  A
C966        H970   1.084       .  S
C971        C972   1.404       .  A
C971        C976   1.398       .  A
C971        H977   1.083       .  S
C973        C974   1.398       .  A
C973        H978   1.083       .  S
C974        C975   1.404   1_565  A
C974        H979   1.083       .  S
C976        H980   1.083       .  S
C981       C2002   1.405   1_455  A
C981        C986   1.398       .  A
C981        H987   1.082       .  S
C982       C2001   1.405       .  A
C982        C983   1.404       .  A
C983        C984   1.398       .  A
C983        H988   1.084       .  S
C984       C2005   1.405       .  A
C984        H989   1.082       .  S
C985       C2004   1.405       .  A
C985        C986   1.404   1_655  A
C986        H990   1.084       .  S
C991       C2012   1.404   1_455  A
C991        C996   1.398       .  A
C991        H997   1.083       .  S
C992       C2011   1.404       .  A
C992        C993   1.405       .  A
C993        C994   1.398       .  A
C993        H998   1.083       .  S
C994        C995   1.405       .  A
C994        H999   1.083       .  S
C995       C2016   1.405       .  A
C996       C2015   1.405   1_455  A
C996       H1000   1.083       .  S
C1001      C2022   1.405       .  A
C1001      C1006   1.397       .  A
C1001      H1007   1.083       .  S
C1002      C2021   1.405       .  A
C1002      C1003   1.404   1_655  A
C1003      C1004   1.398       .  A
C1003      H1008   1.083       .  S
C1004      C2025   1.405   1_455  A
C1004      H1009   1.083       .  S
C1005      C2024   1.405       .  A
C1005      C1006   1.404       .  A
C1006      H1010   1.083       .  S
C1011      C1012   1.405   1_455  A
C1011      C1016   1.398       .  A
C1011      H1017   1.083       .  S
C1012      C2033   1.404       .  A
C1013      C2032   1.404       .  A
C1013      C1014   1.398       .  A
C1013      H1018   1.083       .  S
C1014      C2035   1.405       .  A
C1014      H1019   1.083       .  S
C1015      C2034   1.405       .  A
C1015      C1016   1.405   1_655  A
C1016      H1020   1.083       .  S
N1021      N1022   1.320       .  A
N1021      N1537   1.315       .  A
N1021     Mn1050   2.202       .  S
N1022      C1539   1.353       .  A
N1023      N1535   1.315   1_545  A
N1023      N1024   1.320       .  A
N1023     Mn1039   2.199       .  S
N1024      C1540   1.353       .  A
N1025      N1533   1.315       .  A
N1025      N1026   1.321       .  A
N1025     Mn1050   2.204       .  S
N1026      C1030   1.354       .  A
N1027      N1531   1.315   1_545  A
N1027      N1028   1.320       .  A
N1027     Mn1039   2.201       .  S
N1028      C1029   1.354       .  A
C1029      N1532   1.353   1_545  A
C1029      C1217   1.477       .  S
C1030      N1534   1.353       .  A
C1030      C1207   1.478       .  S
N1031      N1032   1.320       .  A
N1031     Mn1061   2.202       .  S
N1032      C1040   1.354       .  A
N1033      N1034   1.320       .  A
N1033     Mn1039   2.201       .  S
N1034      C1041   1.353       .  A
N1035      N1036   1.320       .  A
N1035     Mn1061   2.203       .  S
N1037      N1038   1.320       .  A
N1037     Mn1039   2.200       .  S
Mn1039    Cl1063   2.546       .  S
C1040      C1237   1.477       .  S
C1041      C1267   1.478       .  S
N1042      N1043   1.320       .  A
N1042     Mn1050   2.202       .  S
N1044      N1045   1.320       .  A
N1044     Mn1062   2.200       .  S
N1046      N1047   1.320       .  A
N1046     Mn1050   2.202       .  S
N1047      C1052   1.354       .  A
N1048      N1049   1.320       .  A
N1048     Mn1062   2.202       .  S
N1049      C1051   1.353       .  A
Mn1050    Cl1573   2.547       .  S
C1051      C1247   1.478       .  S
C1052      C1257   1.477       .  S
N1053      N1054   1.320       .  A
N1053      N1569   1.315   1_545  A
N1053     Mn1061   2.203       .  S
N1054      C1064   1.354       .  A
N1055      N1056   1.320       .  A
N1055      N1567   1.315       .  A
N1055     Mn1062   2.201       .  S
N1056      C1065   1.353       .  A
N1057      N1565   1.315   1_545  A
N1057      N1058   1.320       .  A
N1057     Mn1061   2.202       .  S
N1058      C1575   1.353       .  A
N1059      N1563   1.315       .  A
N1059      N1060   1.320       .  A
N1059     Mn1062   2.200       .  S
N1060      C1574   1.353       .  A
Cl1063    Mn1560   2.547   1_545  S
C1064      N1570   1.353   1_545  A
C1064      C1227   1.478       .  S
C1065      N1568   1.353       .  A
C1065      C1197   1.477       .  S
N1066      N1067   1.320       .  A
N1066     Mn1095   2.202       .  S
N1068      N1069   1.320       .  A
N1068     Mn1084   2.201       .  S
N1070      N1071   1.320       .  A
N1070     Mn1095   2.201       .  S
N1071      C1075   1.354       .  A
N1072      N1073   1.321       .  A
N1072     Mn1084   2.203       .  S
N1073      C1074   1.354       .  A
C1074      C1270   1.478       .  S
C1075      C1260   1.477       .  S
N1076      N1337   1.315       .  A
N1076      N1077   1.320       .  A
N1076     Mn1106   2.199       .  S
N1077      C1085   1.353       .  A
N1078      N1079   1.321       .  A
N1078      N1335   1.315   1_554  A
N1078     Mn1084   2.204       .  S
N1079      C1341   1.354   1_554  A
N1080      N1333   1.315       .  A
N1080      N1081   1.319       .  A
N1080     Mn1106   2.199       .  S
N1081      C1086   1.353       .  A
N1082      N1331   1.315   1_554  A
N1082      N1083   1.320       .  A
N1082     Mn1084   2.203       .  S
N1083      C1340   1.354   1_554  A
C1085      N1338   1.354       .  A
C1085      C1177   1.477       .  S
C1086      N1334   1.354       .  A
C1086      C1187   1.476       .  S
N1087      N1088   1.320       .  A
N1087      N1348   1.315   1_554  A
N1087     Mn1095   2.204       .  S
N1088      C1351   1.354   1_554  A
N1089      N1346   1.315       .  A
N1089      N1090   1.319       .  A
N1089     Mn1107   2.199       .  S
N1090      C1097   1.353       .  A
N1091      N1344   1.315   1_554  A
N1091      N1092   1.321       .  A
N1091     Mn1095   2.202       .  S
N1092      C1352   1.354   1_554  A
N1093      N1342   1.315       .  A
N1093      N1094   1.320       .  A
N1093     Mn1107   2.201       .  S
N1094      C1096   1.354       .  A
Mn1095    Cl1363   2.546   1_554  S
C1096      N1343   1.354       .  A
C1096      C1157   1.478       .  S
C1097      N1347   1.354       .  A
C1097      C1167   1.476       .  S
N1098      N1099   1.320       .  A
N1098     Mn1106   2.201       .  S
N1099      C1109   1.354       .  A
N1100      N1101   1.320       .  A
N1100     Mn1107   2.202       .  S
N1101      C1110   1.354       .  A
N1102      N1103   1.320       .  A
N1102     Mn1106   2.201       .  S
N1104      N1105   1.320       .  A
N1104     Mn1107   2.202       .  S
Mn1107    Cl1108   2.547       .  S
Cl1108    Mn1350   2.546       .  S
C1109      C1240   1.477       .  S
C1110      C1250   1.478       .  S
N1111      N1112   1.320       .  A
N1111      N1372   1.315       .  A
N1111     Mn1140   2.200       .  S
N1112      C1119   1.353       .  A
N1113      N1370   1.315   1_554  A
N1113      N1114   1.321       .  A
N1113     Mn1129   2.203       .  S
N1114      C1375   1.354   1_554  A
N1115      N1368   1.315       .  A
N1115      N1116   1.320       .  A
N1115     Mn1140   2.198       .  S
N1116      C1120   1.353       .  A
N1117      N1366   1.315   1_554  A
N1117      N1118   1.321       .  A
N1117     Mn1129   2.204       .  S
N1118      C1374   1.354   1_554  A
C1119      N1373   1.354       .  A
C1119      C1160   1.478       .  S
C1120      N1369   1.354       .  A
C1120      C1180   1.477       .  S
N1121      N1637   1.315   1_545  A
N1121      N1122   1.320       .  A
N1121     Mn1151   2.200       .  S
N1122      C1130   1.353       .  A
N1123      N1124   1.321       .  A
N1123      N1635   1.315       .  A
N1123     Mn1129   2.204       .  S
N1124      C1131   1.354       .  A
N1125      N1633   1.315   1_545  A
N1125      N1126   1.320       .  A
N1125     Mn1151   2.199       .  S
N1126      C1641   1.353       .  A
N1127      N1631   1.315       .  A
N1127      N1128   1.320       .  A
N1127     Mn1129   2.203       .  S
N1128      C1640   1.354       .  A
Mn1129    Cl1918   2.547   1_554  S
C1130      N1638   1.354   1_545  A
C1130      C1220   1.477       .  S
C1131      N1636   1.353       .  A
C1131      C1230   1.478       .  S
N1132      N1133   1.320       .  A
N1132      N1648   1.315       .  A
N1132     Mn1140   2.199       .  S
N1133      C1651   1.353       .  A
N1134      N1646   1.315   1_545  A
N1134      N1135   1.320       .  A
N1134     Mn1152   2.203       .  S
N1135      C1652   1.354       .  A
N1136      N1644   1.315       .  A
N1136      N1137   1.320       .  A
N1136     Mn1140   2.199       .  S
N1137      C1142   1.353       .  A
N1138      N1642   1.315   1_545  A
N1138      N1139   1.320       .  A
N1138     Mn1152   2.203       .  S
N1139      C1141   1.354       .  A
Mn1140    Cl1663   2.546       .  S
C1141      N1643   1.353   1_545  A
C1141      C1210   1.478       .  S
C1142      N1645   1.354       .  A
C1142      C1200   1.477       .  S
N1143      N1144   1.321       .  A
N1143      N1404   1.315   1_554  A
N1143     Mn1151   2.203       .  S
N1144      C1409   1.354   1_554  A
N1145      N1146   1.320       .  A
N1145      N1402   1.315       .  A
N1145     Mn1152   2.200       .  S
N1146      C1155   1.353       .  A
N1147      N1400   1.315   1_554  A
N1147      N1148   1.321       .  A
N1147     Mn1151   2.203       .  S
N1148      C1410   1.353   1_554  A
N1149      N1398   1.315       .  A
N1149      N1150   1.319       .  A
N1149     Mn1152   2.198       .  S
N1150      C1154   1.353       .  A
Mn1151    Cl1408   2.545   1_554  S
Mn1152    Cl1153   2.547       .  S
Cl1153    Mn1894   2.547   1_545  S
Cl1153    Mn1650   2.546   1_545  S
Cl1153    Mn1406   2.545       .  S
C1154      N1399   1.354       .  A
C1154      C1170   1.476       .  S
C1155      N1403   1.354       .  A
C1155      C1190   1.476       .  S
C1156      C1157   1.405       .  A
C1156      C1161   1.399       .  A
C1156      H1162   1.083       .  S
C1157      C1158   1.405       .  A
C1158      C1159   1.398       .  A
C1158      H1163   1.083       .  S
C1159      C1160   1.405       .  A
C1159      H1164   1.083       .  S
C1160      C1161   1.405       .  A
C1161      H1420   1.083       .  S
H1165      C1416   1.083       .  S
C1166      C1167   1.404       .  A
C1166      C1171   1.396       .  A
C1166      H1172   1.083       .  S
C1167      C1423   1.405       .  A
C1168      C1422   1.405   1_554  A
C1168      C1169   1.399       .  A
C1168      H1173   1.083       .  S
C1169      C1425   1.405   1_554  A
C1169      H1174   1.083       .  S
C1170      C1424   1.405       .  A
C1170      C1171   1.404       .  A
C1171      H1175   1.083       .  S
C1176      C1177   1.405       .  A
C1176      C1181   1.398       .  A
C1176      H1182   1.083       .  S
C1177      C1178   1.404       .  A
C1178      C1179   1.397       .  A
C1178      H1183   1.083       .  S
C1179      C1180   1.404       .  A
C1179      H1184   1.083       .  S
C1180      C1181   1.404       .  A
C1181      H1185   1.082       .  S
C1186      C1187   1.404       .  A
C1186      C1191   1.397       .  A
C1186      H1192   1.083       .  S
C1187      C1188   1.404       .  A
C1188      C1189   1.399       .  A
C1188      H1193   1.083       .  S
C1189      C1190   1.405       .  A
C1189      H1194   1.083       .  S
C1190      C1191   1.404       .  A
C1191      H1195   1.083       .  S
C1196      C1197   1.405       .  A
C1196      C1201   1.398       .  A
C1196      H1202   1.083       .  S
C1197      C1198   1.404       .  A
C1198      C1199   1.398       .  A
C1198      H1203   1.083       .  S
C1199      C1200   1.405       .  A
C1199      H1204   1.083       .  S
C1200      C1201   1.404       .  A
C1201      H1205   1.083       .  S
C1206      C1717   1.405       .  A
C1206      C1211   1.398       .  A
C1206      H1212   1.082       .  S
C1207      C1716   1.405       .  A
C1207      C1208   1.404       .  A
C1208      C1209   1.398       .  A
C1208      H1213   1.083       .  S
C1209      C1720   1.405       .  A
C1209      H1214   1.082       .  S
C1210      C1719   1.405   1_545  A
C1210      C1211   1.404       .  A
C1211      H1215   1.083       .  S
C1216      C1217   1.405   1_565  A
C1216      C1221   1.398       .  A
C1216      H1222   1.082       .  S
C1217      C1218   1.404       .  A
C1218      C1219   1.398       .  A
C1218      H1223   1.084       .  S
C1219      C1220   1.405       .  A
C1219      H1224   1.082       .  S
C1220      C1221   1.404   1_545  A
C1221      H1225   1.084       .  S
C1226      C1227   1.404       .  A
C1226      C1231   1.398       .  A
C1226      H1232   1.083       .  S
C1227      C1738   1.405   1_545  A
C1228      C1737   1.405       .  A
C1228      C1229   1.398       .  A
C1228      H1233   1.083       .  S
C1229      C1230   1.404       .  A
C1229      H1234   1.083       .  S
C1230      C1741   1.405       .  A
C1231      C1740   1.405       .  A
C1231      H1235   1.083       .  S
C1236      C1241   1.398       .  A
C1236      H1242   1.082       .  S
C1237      C1238   1.404       .  A
C1238      C1239   1.398       .  A
C1238      H1243   1.084       .  S
C1239      H1244   1.082       .  S
C1240      C1241   1.404       .  A
C1241      H1245   1.084       .  S
C1246      C1251   1.398       .  A
C1246      H1252   1.083       .  S
C1247      C1248   1.405       .  A
C1248      C1249   1.398       .  A
C1248      H1253   1.083       .  S
C1249      C1250   1.405       .  A
C1249      H1254   1.083       .  S
C1251      H1255   1.083       .  S
C1256      C1261   1.397       .  A
C1256      H1262   1.083       .  S
C1257      C1258   1.404       .  A
C1258      C1259   1.398       .  A
C1258      H1263   1.083       .  S
C1259      H1264   1.083       .  S
C1260      C1261   1.404       .  A
C1261      H1265   1.083       .  S
C1266      C1267   1.405       .  A
C1266      C1271   1.398       .  A
C1266      H1272   1.083       .  S
C1268      C1269   1.398       .  A
C1268      H1273   1.083       .  S
C1269      H1274   1.083       .  S
C1270      C1271   1.405       .  A
C1271      H1275   1.083       .  S
N1276      N1277   1.320       .  A
N1276      N1792   1.315       .  A
N1276     Mn1305   2.202       .  S
N1277      C1794   1.353       .  A
N1278      N1790   1.315   1_545  A
N1278      N1279   1.320       .  A
N1278     Mn1294   2.199       .  S
N1279      C1795   1.353       .  A
N1280      N1788   1.315       .  A
N1280      N1281   1.321       .  A
N1280     Mn1305   2.204       .  S
N1281      C1285   1.354       .  A
N1282      N1786   1.315   1_545  A
N1282      N1283   1.320       .  A
N1282     Mn1294   2.201       .  S
N1283      C1284   1.354       .  A
C1284      N1787   1.353   1_545  A
C1284      C1472   1.477       .  S
C1285      N1789   1.353       .  A
C1285      C1462   1.478       .  S
N1286      N1287   1.320       .  A
N1286     Mn1316   2.202       .  S
N1287      C1295   1.354       .  A
N1288      N1289   1.320       .  A
N1288     Mn1294   2.201       .  S
N1289      C1296   1.353       .  A
N1290      N1291   1.320       .  A
N1290     Mn1316   2.203       .  S
N1292      N1293   1.320       .  A
N1292     Mn1294   2.200       .  S
Mn1294    Cl1318   2.546       .  S
C1295      C1492   1.477       .  S
C1296      C1522   1.478       .  S
N1297      N1298   1.320       .  A
N1297     Mn1305   2.202       .  S
N1299      N1300   1.320       .  A
N1299     Mn1317   2.200       .  S
N1301      N1302   1.320       .  A
N1301     Mn1305   2.202       .  S
N1302      C1307   1.354       .  A
N1303      N1304   1.320       .  A
N1303     Mn1317   2.202       .  S
N1304      C1306   1.353       .  A
Mn1305    Cl1828   2.547       .  S
C1306      C1502   1.478       .  S
C1307      C1512   1.477       .  S
N1308      N1309   1.320       .  A
N1308      N1824   1.315   1_545  A
N1308     Mn1316   2.203       .  S
N1309      C1319   1.354       .  A
N1310      N1311   1.320       .  A
N1310      N1822   1.315       .  A
N1310     Mn1317   2.201       .  S
N1311      C1320   1.353       .  A
N1312      N1820   1.315   1_545  A
N1312      N1313   1.320       .  A
N1312     Mn1316   2.202       .  S
N1313      C1830   1.353       .  A
N1314      N1818   1.315       .  A
N1314      N1315   1.320       .  A
N1314     Mn1317   2.200       .  S
N1315      C1829   1.353       .  A
Cl1318    Mn1815   2.547   1_545  S
C1319      N1825   1.353   1_545  A
C1319      C1482   1.478       .  S
C1320      N1823   1.353       .  A
C1320      C1452   1.477       .  S
N1321      N1322   1.320       .  A
N1321     Mn1350   2.202       .  S
N1323      N1324   1.320       .  A
N1323     Mn1339   2.201       .  S
N1325      N1326   1.320       .  A
N1325     Mn1350   2.201       .  S
N1326      C1330   1.354       .  A
N1327      N1328   1.321       .  A
N1327     Mn1339   2.203       .  S
N1328      C1329   1.354       .  A
C1329      C1525   1.478       .  S
C1330      C1515   1.477       .  S
N1331      N1332   1.320       .  A
N1331     Mn1361   2.199       .  S
N1332      C1340   1.353       .  A
N1333      N1334   1.321       .  A
N1333     Mn1339   2.204       .  S
N1335      N1336   1.319       .  A
N1335     Mn1361   2.199       .  S
N1336      C1341   1.353       .  A
N1337      N1338   1.320       .  A
N1337     Mn1339   2.203       .  S
C1340      C1432   1.477       .  S
C1341      C1442   1.476       .  S
N1342      N1343   1.320       .  A
N1342     Mn1350   2.204       .  S
N1344      N1345   1.319       .  A
N1344     Mn1362   2.199       .  S
N1345      C1352   1.353       .  A
N1346      N1347   1.321       .  A
N1346     Mn1350   2.202       .  S
N1348      N1349   1.320       .  A
N1348     Mn1362   2.201       .  S
N1349      C1351   1.354       .  A
C1351      C1412   1.478       .  S
C1352      C1422   1.476       .  S
N1353      N1354   1.320       .  A
N1353     Mn1361   2.201       .  S
N1354      C1364   1.354       .  A
N1355      N1356   1.320       .  A
N1355     Mn1362   2.202       .  S
N1356      C1365   1.354       .  A
N1357      N1358   1.320       .  A
N1357     Mn1361   2.201       .  S
N1359      N1360   1.320       .  A
N1359     Mn1362   2.202       .  S
Mn1362    Cl1363   2.547       .  S
C1364      C1495   1.477       .  S
C1365      C1505   1.478       .  S
N1366      N1367   1.320       .  A
N1366     Mn1395   2.200       .  S
N1367      C1374   1.353       .  A
N1368      N1369   1.321       .  A
N1368     Mn1384   2.203       .  S
N1370      N1371   1.320       .  A
N1370     Mn1395   2.198       .  S
N1371      C1375   1.353       .  A
N1372      N1373   1.321       .  A
N1372     Mn1384   2.204       .  S
C1374      C1415   1.478       .  S
C1375      C1435   1.477       .  S
N1376      N1892   1.315   1_545  A
N1376      N1377   1.320       .  A
N1376     Mn1406   2.200       .  S
N1377      C1385   1.353       .  A
N1378      N1379   1.321       .  A
N1378      N1890   1.315       .  A
N1378     Mn1384   2.204       .  S
N1379      C1386   1.354       .  A
N1380      N1888   1.315   1_545  A
N1380      N1381   1.320       .  A
N1380     Mn1406   2.199       .  S
N1381      C1896   1.353       .  A
N1382      N1886   1.315       .  A
N1382      N1383   1.320       .  A
N1382     Mn1384   2.203       .  S
N1383      C1895   1.354       .  A
Mn1384    Cl1663   2.547       .  S
C1385      N1893   1.354   1_545  A
C1385      C1475   1.477       .  S
C1386      N1891   1.353       .  A
C1386      C1485   1.478       .  S
N1387      N1388   1.320       .  A
N1387      N1903   1.315       .  A
N1387     Mn1395   2.199       .  S
N1388      C1906   1.353       .  A
N1389      N1901   1.315   1_545  A
N1389      N1390   1.320       .  A
N1389     Mn1407   2.203       .  S
N1390      C1907   1.354       .  A
N1391      N1899   1.315       .  A
N1391      N1392   1.320       .  A
N1391     Mn1395   2.199       .  S
N1392      C1397   1.353       .  A
N1393      N1897   1.315   1_545  A
N1393      N1394   1.320       .  A
N1393     Mn1407   2.203       .  S
N1394      C1396   1.354       .  A
Mn1395    Cl1918   2.546       .  S
C1396      N1898   1.353   1_545  A
C1396      C1465   1.478       .  S
C1397      N1900   1.354       .  A
C1397      C1455   1.477       .  S
N1398      N1399   1.321       .  A
N1398     Mn1406   2.203       .  S
N1400      N1401   1.320       .  A
N1400     Mn1407   2.200       .  S
N1401      C1410   1.353       .  A
N1402      N1403   1.321       .  A
N1402     Mn1406   2.203       .  S
N1404      N1405   1.319       .  A
N1404     Mn1407   2.198       .  S
N1405      C1409   1.353       .  A
Mn1407    Cl1408   2.547       .  S
Cl1408    Mn1639   2.547   1_546  S
Cl1408    Mn1905   2.546   1_545  S
C1409      C1425   1.476       .  S
C1410      C1445   1.476       .  S
C1411      C1412   1.405   1_554  A
C1411      C1416   1.399       .  A
C1411      H1417   1.083       .  S
C1412      C1413   1.405       .  A
C1413      C1414   1.398       .  A
C1413      H1418   1.083       .  S
C1414      C1415   1.405       .  A
C1414      H1419   1.083       .  S
C1415      C1416   1.405   1_556  A
C1421      C1422   1.404       .  A
C1421      C1426   1.396       .  A
C1421      H1427   1.083       .  S
C1423      C1424   1.399       .  A
C1423      H1428   1.083       .  S
C1424      H1429   1.083       .  S
C1425      C1426   1.404       .  A
C1426      H1430   1.083       .  S
C1431      C1432   1.405   1_554  A
C1431      C1436   1.398       .  A
C1431      H1437   1.083       .  S
C1432      C1433   1.404       .  A
C1433      C1434   1.397       .  A
C1433      H1438   1.083       .  S
C1434      C1435   1.404       .  A
C1434      H1439   1.083       .  S
C1435      C1436   1.404   1_556  A
C1436      H1440   1.082       .  S
C1441      C1442   1.404       .  A
C1441      C1446   1.397       .  A
C1441      H1447   1.083       .  S
C1442      C1443   1.404   1_556  A
C1443      C1444   1.399       .  A
C1443      H1448   1.083       .  S
C1444      C1445   1.405   1_554  A
C1444      H1449   1.083       .  S
C1445      C1446   1.404       .  A
C1446      H1450   1.083       .  S
C1451      C1452   1.405       .  A
C1451      C1456   1.398       .  A
C1451      H1457   1.083       .  S
C1452      C1453   1.404       .  A
C1453      C1454   1.398       .  A
C1453      H1458   1.083       .  S
C1454      C1455   1.405       .  A
C1454      H1459   1.083       .  S
C1455      C1456   1.404       .  A
C1456      H1460   1.083       .  S
C1461      C1972   1.405       .  A
C1461      C1466   1.398       .  A
C1461      H1467   1.083       .  S
C1462      C1971   1.405       .  A
C1462      C1463   1.404       .  A
C1463      C1464   1.398       .  A
C1463      H1468   1.083       .  S
C1464      C1975   1.405       .  A
C1464      H1469   1.082       .  S
C1465      C1974   1.405   1_545  A
C1465      C1466   1.404       .  A
C1466      H1470   1.083       .  S
C1471      C1472   1.405   1_565  A
C1471      C1476   1.398       .  A
C1471      H1477   1.082       .  S
C1472      C1473   1.404       .  A
C1473      C1474   1.398       .  A
C1473      H1478   1.084       .  S
C1474      C1475   1.405       .  A
C1474      H1479   1.082       .  S
C1475      C1476   1.404   1_545  A
C1476      H1480   1.084       .  S
C1481      C1482   1.404       .  A
C1481      C1486   1.398       .  A
C1481      H1487   1.083       .  S
C1482      C1993   1.405   1_545  A
C1483      C1992   1.405       .  A
C1483      C1484   1.398       .  A
C1483      H1488   1.083       .  S
C1484      C1485   1.404       .  A
C1484      H1489   1.083       .  S
C1485      C1996   1.405       .  A
C1486      C1995   1.405       .  A
C1486      H1490   1.083       .  S
C1491      C1496   1.398       .  A
C1491      H1497   1.082       .  S
C1492      C1493   1.404       .  A
C1493      C1494   1.398       .  A
C1493      H1498   1.084       .  S
C1494      H1499   1.082       .  S
C1495      C1496   1.404       .  A
C1496      H1500   1.084       .  S
C1501      C1506   1.398       .  A
C1501      H1507   1.083       .  S
C1502      C1503   1.405       .  A
C1503      C1504   1.398       .  A
C1503      H1508   1.083       .  S
C1504      C1505   1.405       .  A
C1504      H1509   1.083       .  S
C1506      H1510   1.083       .  S
C1511      C1516   1.397       .  A
C1511      H1517   1.083       .  S
C1512      C1513   1.404       .  A
C1513      C1514   1.398       .  A
C1513      H1518   1.083       .  S
C1514      H1519   1.083       .  S
C1515      C1516   1.404       .  A
C1516      H1520   1.083       .  S
C1521      C1522   1.405       .  A
C1521      C1526   1.398       .  A
C1521      H1527   1.083       .  S
C1523      C1524   1.398       .  A
C1523      H1528   1.083       .  S
C1524      H1529   1.083       .  S
C1525      C1526   1.405       .  A
C1526      H1530   1.083       .  S
N1531      N1532   1.320       .  A
N1531     Mn1560   2.202       .  S
N1533      N1534   1.320       .  A
N1533     Mn1549   2.199       .  S
N1535      N1536   1.321       .  A
N1535     Mn1560   2.204       .  S
N1536      C1540   1.354   1_565  A
N1537      N1538   1.320       .  A
N1537     Mn1549   2.201       .  S
N1538      C1539   1.354       .  A
C1539      C1727   1.477       .  S
C1540      C1717   1.478       .  S
N1541      N1542   1.320       .  A
N1541     Mn1571   2.202       .  S
N1542      C1550   1.354       .  A
N1543      N1544   1.320       .  A
N1543     Mn1549   2.201       .  S
N1544      C1551   1.353       .  A
N1545      N1546   1.320       .  A
N1545     Mn1571   2.203       .  S
N1547      N1548   1.320       .  A
N1547     Mn1549   2.200       .  S
Mn1549    Cl1573   2.546       .  S
C1550      C1747   1.477       .  S
C1551      C1777   1.478       .  S
N1552      N1553   1.320       .  A
N1552     Mn1560   2.202       .  S
N1554      N1555   1.320       .  A
N1554     Mn1572   2.200       .  S
N1556      N1557   1.320       .  A
N1556     Mn1560   2.202       .  S
N1557      C1562   1.354       .  A
N1558      N1559   1.320       .  A
N1558     Mn1572   2.202       .  S
N1559      C1561   1.353       .  A
C1561      C1757   1.478       .  S
C1562      C1767   1.477       .  S
N1563      N1564   1.320       .  A
N1563     Mn1571   2.203       .  S
N1564      C1574   1.354       .  A
N1565      N1566   1.320       .  A
N1565     Mn1572   2.201       .  S
N1566      C1575   1.353   1_565  A
N1567      N1568   1.320       .  A
N1567     Mn1571   2.202       .  S
N1569      N1570   1.320       .  A
N1569     Mn1572   2.200       .  S
C1574      C1737   1.478       .  S
C1575      C1707   1.477   1_545  S
N1576      N1577   1.320       .  A
N1576     Mn1605   2.202       .  S
N1578      N1579   1.320       .  A
N1578     Mn1594   2.201       .  S
N1580      N1581   1.320       .  A
N1580     Mn1605   2.201       .  S
N1581      C1585   1.354       .  A
N1582      N1583   1.321       .  A
N1582     Mn1594   2.203       .  S
N1583      C1584   1.354       .  A
C1584      C1780   1.478       .  S
C1585      C1770   1.477       .  S
N1586      N1847   1.315       .  A
N1586      N1587   1.320       .  A
N1586     Mn1616   2.199       .  S
N1587      C1595   1.353       .  A
N1588      N1589   1.321       .  A
N1588      N1845   1.315   1_554  A
N1588     Mn1594   2.204       .  S
N1589      C1851   1.354   1_554  A
N1590      N1843   1.315       .  A
N1590      N1591   1.319       .  A
N1590     Mn1616   2.199       .  S
N1591      C1596   1.353       .  A
N1592      N1841   1.315   1_554  A
N1592      N1593   1.320       .  A
N1592     Mn1594   2.203       .  S
N1593      C1850   1.354   1_554  A
C1595      N1848   1.354       .  A
C1595      C1687   1.477       .  S
C1596      N1844   1.354       .  A
C1596      C1697   1.476       .  S
N1597      N1598   1.320       .  A
N1597      N1858   1.315   1_554  A
N1597     Mn1605   2.204       .  S
N1598      C1861   1.354   1_554  A
N1599      N1856   1.315       .  A
N1599      N1600   1.319       .  A
N1599     Mn1617   2.199       .  S
N1600      C1607   1.353       .  A
N1601      N1854   1.315   1_554  A
N1601      N1602   1.321       .  A
N1601     Mn1605   2.202       .  S
N1602      C1862   1.354   1_554  A
N1603      N1852   1.315       .  A
N1603      N1604   1.320       .  A
N1603     Mn1617   2.201       .  S
N1604      C1606   1.354       .  A
Mn1605    Cl1873   2.546   1_554  S
C1606      N1853   1.354       .  A
C1606      C1667   1.478       .  S
C1607      N1857   1.354       .  A
C1607      C1677   1.476       .  S
N1608      N1609   1.320       .  A
N1608     Mn1616   2.201       .  S
N1609      C1619   1.354       .  A
N1610      N1611   1.320       .  A
N1610     Mn1617   2.202       .  S
N1611      C1620   1.354       .  A
N1612      N1613   1.320       .  A
N1612     Mn1616   2.201       .  S
N1614      N1615   1.320       .  A
N1614     Mn1617   2.202       .  S
Mn1617    Cl1618   2.547       .  S
Cl1618    Mn1860   2.546       .  S
C1619      C1750   1.477       .  S
C1620      C1760   1.478       .  S
N1621      N1622   1.320       .  A
N1621      N1882   1.315       .  A
N1621     Mn1650   2.200       .  S
N1622      C1629   1.353       .  A
N1623      N1880   1.315   1_554  A
N1623      N1624   1.321       .  A
N1623     Mn1639   2.203       .  S
N1624      C1885   1.354   1_554  A
N1625      N1878   1.315       .  A
N1625      N1626   1.320       .  A
N1625     Mn1650   2.198       .  S
N1626      C1630   1.353       .  A
N1627      N1876   1.315   1_554  A
N1627      N1628   1.321       .  A
N1627     Mn1639   2.204       .  S
N1628      C1884   1.354   1_554  A
C1629      N1883   1.354       .  A
C1629      C1670   1.478       .  S
C1630      N1879   1.354       .  A
C1630      C1690   1.477       .  S
N1631      N1632   1.320       .  A
N1631     Mn1661   2.200       .  S
N1632      C1640   1.353       .  A
N1633      N1634   1.321       .  A
N1633     Mn1639   2.204       .  S
N1634      C1641   1.354   1_565  A
N1635      N1636   1.320       .  A
N1635     Mn1661   2.199       .  S
N1637      N1638   1.320       .  A
N1637     Mn1639   2.203       .  S
C1640      C1730   1.477       .  S
C1641      C1740   1.478       .  S
N1642      N1643   1.320       .  A
N1642     Mn1650   2.199       .  S
N1644      N1645   1.320       .  A
N1644     Mn1662   2.203       .  S
N1646      N1647   1.320       .  A
N1646     Mn1650   2.199       .  S
N1647      C1652   1.353   1_565  A
N1648      N1649   1.320       .  A
N1648     Mn1662   2.203       .  S
N1649      C1651   1.354       .  A
C1651      C1720   1.478       .  S
C1652      C1710   1.477       .  S
N1653      N1654   1.321       .  A
N1653      N1914   1.315   1_554  A
N1653     Mn1661   2.203       .  S
N1654      C1919   1.354   1_554  A
N1655      N1656   1.320       .  A
N1655      N1912   1.315       .  A
N1655     Mn1662   2.200       .  S
N1656      C1665   1.353       .  A
N1657      N1910   1.315   1_554  A
N1657      N1658   1.321       .  A
N1657     Mn1661   2.203       .  S
N1658      C1920   1.353   1_554  A
N1659      N1908   1.315       .  A
N1659      N1660   1.319       .  A
N1659     Mn1662   2.198       .  S
N1660      C1664   1.353       .  A
Mn1661    Cl1918   2.545   1_554  S
Mn1662    Cl1663   2.547       .  S
Cl1663    Mn1916   2.545       .  S
C1664      N1909   1.354       .  A
C1664      C1680   1.476       .  S
C1665      N1913   1.353       .  A
C1665      C1700   1.476       .  S
C1666      C1667   1.405       .  A
C1666      C1671   1.399       .  A
C1666      H1672   1.083       .  S
C1667      C1668   1.405       .  A
C1668      C1669   1.398       .  A
C1668      H1673   1.083       .  S
C1669      C1670   1.405       .  A
C1669      H1674   1.083       .  S
C1670      C1671   1.405       .  A
C1671      H1930   1.083       .  S
H1675      C1926   1.083       .  S
C1676      C1677   1.404       .  A
C1676      C1681   1.396       .  A
C1676      H1682   1.083       .  S
C1677      C1933   1.405       .  A
C1678      C1932   1.405   1_554  A
C1678      C1679   1.399       .  A
C1678      H1683   1.083       .  S
C1679      C1935   1.405   1_554  A
C1679      H1684   1.083       .  S
C1680      C1934   1.405       .  A
C1680      C1681   1.404       .  A
C1681      H1685   1.083       .  S
C1686      C1687   1.405       .  A
C1686      C1691   1.398       .  A
C1686      H1692   1.083       .  S
C1687      C1688   1.404       .  A
C1688      C1689   1.397       .  A
C1688      H1693   1.083       .  S
C1689      C1690   1.404       .  A
C1689      H1694   1.083       .  S
C1690      C1691   1.404       .  A
C1691      H1695   1.082       .  S
C1696      C1697   1.404       .  A
C1696      C1701   1.397       .  A
C1696      H1702   1.083       .  S
C1697      C1698   1.404       .  A
C1698      C1699   1.399       .  A
C1698      H1703   1.083       .  S
C1699      C1700   1.405       .  A
C1699      H1704   1.083       .  S
C1700      C1701   1.404       .  A
C1701      H1705   1.083       .  S
C1706      C1707   1.405   1_545  A
C1706      C1711   1.398       .  A
C1706      H1712   1.083       .  S
C1707      C1708   1.404       .  A
C1708      C1709   1.398       .  A
C1708      H1713   1.083       .  S
C1709      C1710   1.405   1_565  A
C1709      H1714   1.083       .  S
C1710      C1711   1.404       .  A
C1711      H1715   1.083       .  S
C1716      C1721   1.398       .  A
C1716      H1722   1.082       .  S
C1717      C1718   1.404   1_545  A
C1718      C1719   1.398       .  A
C1718      H1723   1.083       .  S
C1719      H1724   1.082       .  S
C1720      C1721   1.404       .  A
C1721      H1725   1.083       .  S
C1726      C1727   1.405       .  A
C1726      C1731   1.398       .  A
C1726      H1732   1.082       .  S
C1727      C1728   1.404       .  A
C1728      C1729   1.398       .  A
C1728      H1733   1.084       .  S
C1729      C1730   1.405       .  A
C1729      H1734   1.082       .  S
C1730      C1731   1.404       .  A
C1731      H1735   1.084       .  S
C1736      C1737   1.404       .  A
C1736      C1741   1.398       .  A
C1736      H1742   1.083       .  S
C1738      C1739   1.398       .  A
C1738      H1743   1.083       .  S
C1739      C1740   1.404   1_565  A
C1739      H1744   1.083       .  S
C1741      H1745   1.083       .  S
C1746      C1751   1.398       .  A
C1746      H1752   1.082       .  S
C1747      C1748   1.404       .  A
C1748      C1749   1.398       .  A
C1748      H1753   1.084       .  S
C1749      H1754   1.082       .  S
C1750      C1751   1.404       .  A
C1751      H1755   1.084       .  S
C1756      C1761   1.398       .  A
C1756      H1762   1.083       .  S
C1757      C1758   1.405       .  A
C1758      C1759   1.398       .  A
C1758      H1763   1.083       .  S
C1759      C1760   1.405       .  A
C1759      H1764   1.083       .  S
C1761      H1765   1.083       .  S
C1766      C1771   1.397       .  A
C1766      H1772   1.083       .  S
C1767      C1768   1.404       .  A
C1768      C1769   1.398       .  A
C1768      H1773   1.083       .  S
C1769      H1774   1.083       .  S
C1770      C1771   1.404       .  A
C1771      H1775   1.083       .  S
C1776      C1777   1.405       .  A
C1776      C1781   1.398       .  A
C1776      H1782   1.083       .  S
C1778      C1779   1.398       .  A
C1778      H1783   1.083       .  S
C1779      H1784   1.083       .  S
C1780      C1781   1.405       .  A
C1781      H1785   1.083       .  S
N1786      N1787   1.320       .  A
N1786     Mn1815   2.202       .  S
N1788      N1789   1.320       .  A
N1788     Mn1804   2.199       .  S
N1790      N1791   1.321       .  A
N1790     Mn1815   2.204       .  S
N1791      C1795   1.354   1_565  A
N1792      N1793   1.320       .  A
N1792     Mn1804   2.201       .  S
N1793      C1794   1.354       .  A
C1794      C1982   1.477       .  S
C1795      C1972   1.478       .  S
N1796      N1797   1.320       .  A
N1796     Mn1826   2.202       .  S
N1797      C1805   1.354       .  A
N1798      N1799   1.320       .  A
N1798     Mn1804   2.201       .  S
N1799      C1806   1.353       .  A
N1800      N1801   1.320       .  A
N1800     Mn1826   2.203       .  S
N1802      N1803   1.320       .  A
N1802     Mn1804   2.200       .  S
Mn1804    Cl1828   2.546       .  S
C1805      C2002   1.477       .  S
C1806      C2032   1.478       .  S
N1807      N1808   1.320       .  A
N1807     Mn1815   2.202       .  S
N1809      N1810   1.320       .  A
N1809     Mn1827   2.200       .  S
N1811      N1812   1.320       .  A
N1811     Mn1815   2.202       .  S
N1812      C1817   1.354       .  A
N1813      N1814   1.320       .  A
N1813     Mn1827   2.202       .  S
N1814      C1816   1.353       .  A
C1816      C2012   1.478       .  S
C1817      C2022   1.477       .  S
N1818      N1819   1.320       .  A
N1818     Mn1826   2.203       .  S
N1819      C1829   1.354       .  A
N1820      N1821   1.320       .  A
N1820     Mn1827   2.201       .  S
N1821      C1830   1.353   1_565  A
N1822      N1823   1.320       .  A
N1822     Mn1826   2.202       .  S
N1824      N1825   1.320       .  A
N1824     Mn1827   2.200       .  S
C1829      C1992   1.478       .  S
C1830      C1962   1.477   1_545  S
N1831      N1832   1.320       .  A
N1831     Mn1860   2.202       .  S
N1833      N1834   1.320       .  A
N1833     Mn1849   2.201       .  S
N1835      N1836   1.320       .  A
N1835     Mn1860   2.201       .  S
N1836      C1840   1.354       .  A
N1837      N1838   1.321       .  A
N1837     Mn1849   2.203       .  S
N1838      C1839   1.354       .  A
C1839      C2035   1.478       .  S
C1840      C2025   1.477       .  S
N1841      N1842   1.320       .  A
N1841     Mn1871   2.199       .  S
N1842      C1850   1.353       .  A
N1843      N1844   1.321       .  A
N1843     Mn1849   2.204       .  S
N1845      N1846   1.319       .  A
N1845     Mn1871   2.199       .  S
N1846      C1851   1.353       .  A
N1847      N1848   1.320       .  A
N1847     Mn1849   2.203       .  S
C1850      C1942   1.477       .  S
C1851      C1952   1.476       .  S
N1852      N1853   1.320       .  A
N1852     Mn1860   2.204       .  S
N1854      N1855   1.319       .  A
N1854     Mn1872   2.199       .  S
N1855      C1862   1.353       .  A
N1856      N1857   1.321       .  A
N1856     Mn1860   2.202       .  S
N1858      N1859   1.320       .  A
N1858     Mn1872   2.201       .  S
N1859      C1861   1.354       .  A
C1861      C1922   1.478       .  S
C1862      C1932   1.476       .  S
N1863      N1864   1.320       .  A
N1863     Mn1871   2.201       .  S
N1864      C1874   1.354       .  A
N1865      N1866   1.320       .  A
N1865     Mn1872   2.202       .  S
N1866      C1875   1.354       .  A
N1867      N1868   1.320       .  A
N1867     Mn1871   2.201       .  S
N1869      N1870   1.320       .  A
N1869     Mn1872   2.202       .  S
Mn1872    Cl1873   2.547       .  S
C1874      C2005   1.477       .  S
C1875      C2015   1.478       .  S
N1876      N1877   1.320       .  A
N1876     Mn1905   2.200       .  S
N1877      C1884   1.353       .  A
N1878      N1879   1.321       .  A
N1878     Mn1894   2.203       .  S
N1880      N1881   1.320       .  A
N1880     Mn1905   2.198       .  S
N1881      C1885   1.353       .  A
N1882      N1883   1.321       .  A
N1882     Mn1894   2.204       .  S
C1884      C1925   1.478       .  S
C1885      C1945   1.477       .  S
N1886      N1887   1.320       .  A
N1886     Mn1916   2.200       .  S
N1887      C1895   1.353       .  A
N1888      N1889   1.321       .  A
N1888     Mn1894   2.204       .  S
N1889      C1896   1.354   1_565  A
N1890      N1891   1.320       .  A
N1890     Mn1916   2.199       .  S
N1892      N1893   1.320       .  A
N1892     Mn1894   2.203       .  S
C1895      C1985   1.477       .  S
C1896      C1995   1.478       .  S
N1897      N1898   1.320       .  A
N1897     Mn1905   2.199       .  S
N1899      N1900   1.320       .  A
N1899     Mn1917   2.203       .  S
N1901      N1902   1.320       .  A
N1901     Mn1905   2.199       .  S
N1902      C1907   1.353   1_565  A
N1903      N1904   1.320       .  A
N1903     Mn1917   2.203       .  S
N1904      C1906   1.354       .  A
C1906      C1975   1.478       .  S
C1907      C1965   1.477       .  S
N1908      N1909   1.321       .  A
N1908     Mn1916   2.203       .  S
N1910      N1911   1.320       .  A
N1910     Mn1917   2.200       .  S
N1911      C1920   1.353       .  A
N1912      N1913   1.321       .  A
N1912     Mn1916   2.203       .  S
N1914      N1915   1.319       .  A
N1914     Mn1917   2.198       .  S
N1915      C1919   1.353       .  A
Mn1917    Cl1918   2.547       .  S
C1919      C1935   1.476       .  S
C1920      C1955   1.476       .  S
C1921      C1922   1.405   1_554  A
C1921      C1926   1.399       .  A
C1921      H1927   1.083       .  S
C1922      C1923   1.405       .  A
C1923      C1924   1.398       .  A
C1923      H1928   1.083       .  S
C1924      C1925   1.405       .  A
C1924      H1929   1.083       .  S
C1925      C1926   1.405   1_556  A
C1931      C1932   1.404       .  A
C1931      C1936   1.396       .  A
C1931      H1937   1.083       .  S
C1933      C1934   1.399       .  A
C1933      H1938   1.083       .  S
C1934      H1939   1.083       .  S
C1935      C1936   1.404       .  A
C1936      H1940   1.083       .  S
C1941      C1942   1.405   1_554  A
C1941      C1946   1.398       .  A
C1941      H1947   1.083       .  S
C1942      C1943   1.404       .  A
C1943      C1944   1.397       .  A
C1943      H1948   1.083       .  S
C1944      C1945   1.404       .  A
C1944      H1949   1.083       .  S
C1945      C1946   1.404   1_556  A
C1946      H1950   1.082       .  S
C1951      C1952   1.404       .  A
C1951      C1956   1.397       .  A
C1951      H1957   1.083       .  S
C1952      C1953   1.404   1_556  A
C1953      C1954   1.399       .  A
C1953      H1958   1.083       .  S
C1954      C1955   1.405   1_554  A
C1954      H1959   1.083       .  S
C1955      C1956   1.404       .  A
C1956      H1960   1.083       .  S
C1961      C1962   1.405   1_545  A
C1961      C1966   1.398       .  A
C1961      H1967   1.083       .  S
C1962      C1963   1.404       .  A
C1963      C1964   1.398       .  A
C1963      H1968   1.083       .  S
C1964      C1965   1.405   1_565  A
C1964      H1969   1.083       .  S
C1965      C1966   1.404       .  A
C1966      H1970   1.083       .  S
C1971      C1976   1.398       .  A
C1971      H1977   1.083       .  S
C1972      C1973   1.404   1_545  A
C1973      C1974   1.398       .  A
C1973      H1978   1.083       .  S
C1974      H1979   1.082       .  S
C1975      C1976   1.404       .  A
C1976      H1980   1.083       .  S
C1981      C1982   1.405       .  A
C1981      C1986   1.398       .  A
C1981      H1987   1.082       .  S
C1982      C1983   1.404       .  A
C1983      C1984   1.398       .  A
C1983      H1988   1.084       .  S
C1984      C1985   1.405       .  A
C1984      H1989   1.082       .  S
C1985      C1986   1.404       .  A
C1986      H1990   1.084       .  S
C1991      C1992   1.404       .  A
C1991      C1996   1.398       .  A
C1991      H1997   1.083       .  S
C1993      C1994   1.398       .  A
C1993      H1998   1.083       .  S
C1994      C1995   1.404   1_565  A
C1994      H1999   1.083       .  S
C1996      H2000   1.083       .  S
C2001      C2006   1.398       .  A
C2001      H2007   1.082       .  S
C2002      C2003   1.404       .  A
C2003      C2004   1.398       .  A
C2003      H2008   1.084       .  S
C2004      H2009   1.082       .  S
C2005      C2006   1.404       .  A
C2006      H2010   1.084       .  S
C2011      C2016   1.398       .  A
C2011      H2017   1.083       .  S
C2012      C2013   1.405       .  A
C2013      C2014   1.398       .  A
C2013      H2018   1.083       .  S
C2014      C2015   1.405       .  A
C2014      H2019   1.083       .  S
C2016      H2020   1.083       .  S
C2021      C2026   1.397       .  A
C2021      H2027   1.083       .  S
C2022      C2023   1.404       .  A
C2023      C2024   1.398       .  A
C2023      H2028   1.083       .  S
C2024      H2029   1.083       .  S
C2025      C2026   1.404       .  A
C2026      H2030   1.083       .  S
C2031      C2032   1.405       .  A
C2031      C2036   1.398       .  A
C2031      H2037   1.083       .  S
C2033      C2034   1.398       .  A
C2033      H2038   1.083       .  S
C2034      H2039   1.083       .  S
C2035      C2036   1.405       .  A
C2036      H2040   1.083       .  S
