geometry optimzed in LAMMPS
_audit_creation_date              2020-12-01 
_audit_creation_method            'lammps2cif' 
_symmetry_space_group_name_H-M    'P1' 
_symmetry_Int_Tables_number       1 
_symmetry_cell_setting            triclinic 
loop_ 
_symmetry_equiv_pos_as_xyz 
  x,y,z 
_cell_length_a                    36.55138264 
_cell_length_b                    29.563411740000877 
_cell_length_c                    29.25255882601365 
_cell_angle_alpha                 90.55763379051768 
_cell_angle_beta                  90.00001188905846 
_cell_angle_gamma                 89.99998604594029 
loop_ 
_atom_site_label 
_atom_site_type_symbol 
_atom_site_fract_x 
_atom_site_fract_y 
_atom_site_fract_z 
_atom_site_charge 
O1          O  0.18643869  0.28030082  0.02698005    -0.87400
C2          C  0.08481060  0.30008930  0.07905532     0.88600
Mg3        Mg  0.20025242  0.29641207  0.95810345     1.58100
O4          O  0.10635906  0.18695901  0.05477099    -0.87200
O5          O  0.18698685  0.22116172  0.07165122    -0.74500
C6          C  0.06388485  0.21116444  0.83374826     0.93600
O7          O  0.12807631  0.35687018  0.00273804    -0.74300
O8          O  0.08791810  0.24221060  0.83202558    -0.81800
Mg9        Mg  0.15895499  0.33182204  0.06612405     1.58000
C10         C  0.03518026  0.10322152  0.98834822     0.93600
O11         O  0.19027934  0.31330646  0.13197777    -0.80100
H12         H  0.13923109  0.13359878  0.06298197    -0.05400
C13         C  0.04781053  0.25196886  0.95723031     0.88500
O14         O  0.19230776  0.22228762  0.93595918    -0.74600
O15         O  0.11627247  0.28465250  0.08008328    -0.87400
O16         O  0.03684967  0.12875984  0.02357135    -0.80200
C17         C  0.04764460  0.20258786  0.15255470     0.93700
C18         C  0.18631411  0.28800417  0.16666162     0.93500
Mg19       Mg  0.09124374  0.16735097  0.93428580     1.58000
O20         O  0.05992061  0.18586405  0.86843320    -0.80100
O21         O  0.12212204  0.14229968  0.99767094    -0.74300
O22         O  0.07991141  0.21885381  0.15496791    -0.80200
O23         O  0.20198008  0.38461297  0.05054323    -0.81900
O24         O  0.17028690  0.28030671  0.84544537    -0.80200
C25         C  0.12280909  0.15333960  0.03979071     0.88000
O26         O  0.13392476  0.21451794  0.92032982    -0.87300
O27         O  0.06375822  0.21886913  0.97343169    -0.87500
O28         O  0.06321155  0.27801003  0.92876183    -0.74500
Mg29       Mg  0.13221798  0.22179784  0.11031092     1.58000
O30         O  0.03368987  0.18850694  0.11528127    -0.81900
H31         H  0.22981568  0.23940114  0.03171642    -0.05600
O32         O  0.14383989  0.31220905  0.94563909    -0.87200
H33         H  0.11096776  0.36557011  0.93742553    -0.05400
H34         H  0.16989202  0.16431309  0.91101368    -0.05600
C35         C  0.12739010  0.34582895  0.96061863     0.87900
C36         C  0.20238734  0.24720331  0.04318338     0.88500
C37         C  0.16538503  0.19907795  0.92135951     0.88600
H38         H  0.02038514  0.25977256  0.96869838    -0.05600
O39         O  0.05788881  0.27687507  0.06445800    -0.74600
Mg40       Mg  0.11797996  0.27737126  0.89010003     1.58000
H41         H  0.08030169  0.33484873  0.08940080    -0.05600
C42         C  0.21502179  0.39594538  0.01204941     0.93600
O43         O  0.21651209  0.31064681  0.88513026    -0.81800
C44         C  0.20255641  0.29656402  0.84785817     0.93600
O45         O  0.16227875  0.25696031  0.16838396    -0.81800
Mg46       Mg  0.04994576  0.20275035  0.04230821     1.58200
O47         O  0.21335137  0.37039905  0.97683289    -0.80200
O48         O  0.04822050  0.11456381  0.94985757    -0.81900
O49         O  0.43647260  0.78027325  0.02687891    -0.87400
C50         C  0.33484587  0.80006356  0.07895353     0.88600
Mg51       Mg  0.45028573  0.79639209  0.95800287     1.58100
O52         O  0.35639096  0.68693279  0.05467040    -0.87200
O53         O  0.43701913  0.72113178  0.07154736    -0.74500
C54         C  0.31392072  0.71113298  0.83364733     0.93600
O55         O  0.37810862  0.85684115  0.00264068    -0.74300
O56         O  0.33795451  0.74217874  0.83192517    -0.81800
Mg57       Mg  0.40898763  0.83178989  0.06602632     1.58000
C58         C  0.28520883  0.60319718  0.98825921     0.93600
O59         O  0.44031260  0.81327350  0.13187807    -0.80100
H60         H  0.38926077  0.63357069  0.06288572    -0.05400
C61         C  0.29784397  0.75193960  0.95712548     0.88500
O62         O  0.44234308  0.72226648  0.93585412    -0.74600
O63         O  0.36630635  0.78462274  0.07998285    -0.87400
O64         O  0.28687897  0.62874374  0.02347546    -0.80200
C65         C  0.29767687  0.70256742  0.15245284     0.93700
C66         C  0.43634829  0.78797103  0.16656163     0.93500
Mg67       Mg  0.34127716  0.66731956  0.93418707     1.58000
O68         O  0.30995518  0.68583240  0.86833216    -0.80100
O69         O  0.37215446  0.64227038  0.99757299    -0.74300
O70         O  0.32994582  0.71882664  0.15486723    -0.80200
O71         O  0.45201076  0.88457759  0.05045365    -0.81900
O72         O  0.42032282  0.78028074  0.84534553    -0.80200
C73         C  0.37284015  0.65331191  0.03969222     0.88000
O74         O  0.38395950  0.71448888  0.92022952    -0.87300
O75         O  0.31379248  0.71884204  0.97332939    -0.87500
O76         O  0.31324492  0.77798079  0.92865744    -0.74500
Mg77       Mg  0.38225135  0.72176816  0.11020990     1.58000
O78         O  0.28372022  0.68849182  0.11517868    -0.81900
H79         H  0.47984557  0.73936995  0.03161180    -0.05600
O80         O  0.39387254  0.81218357  0.94553928    -0.87200
H81         H  0.36099822  0.86554448  0.93732802    -0.05400
H82         H  0.41993065  0.66428719  0.91091161    -0.05600
C83         C  0.37742178  0.84580161  0.96052096     0.87900
C84         C  0.45242032  0.74717329  0.04307954     0.88500
C85         C  0.41542113  0.69905291  0.92125780     0.88600
H86         H  0.27041646  0.75974211  0.96859199    -0.05600
O87         O  0.30792331  0.77685360  0.06435231    -0.74600
Mg88       Mg  0.36801451  0.77734272  0.88999907     1.58000
H89         H  0.33033960  0.83482319  0.08929817    -0.05600
C90         C  0.46505042  0.89592087  0.01196295     0.93600
O91         O  0.46654380  0.81063269  0.88502937    -0.81800
C92         C  0.45259027  0.79654493  0.84775769     0.93600
O93         O  0.41231344  0.75692677  0.16828400    -0.81800
Mg94       Mg  0.29997854  0.70272987  0.04220620     1.58200
O95         O  0.46338104  0.87038311  0.97673940    -0.80200
O96         O  0.29825154  0.61452911  0.94976590    -0.81900
O97         O  0.43643772  0.21880754  0.47343335    -0.87400
C98         C  0.33481045  0.19901821  0.42135733     0.88600
Mg99       Mg  0.45025135  0.20269031  0.54230940     1.58100
O100        O  0.35635719  0.31214751  0.44564195    -0.87200
O101        O  0.43698483  0.27794848  0.42876436    -0.74500
C102        C  0.31388521  0.28794893  0.66666399     0.93600
O103        O  0.37807471  0.14223920  0.49767149    -0.74300
O104        O  0.33791831  0.25690232  0.66838629    -0.81800
Mg105      Mg  0.40895354  0.16729039  0.43428588     1.58000
C106        C  0.28518010  0.39588633  0.51205272     0.93600
O107        O  0.44027869  0.18580821  0.36843396    -0.80100
H108        H  0.38922807  0.36550863  0.43742702    -0.05400
C109        C  0.29780887  0.24714091  0.54318516     0.88500
O110        O  0.44230704  0.27681501  0.56445660    -0.74600
O111        O  0.36627120  0.21445747  0.42032826    -0.87400
O112        O  0.28684957  0.37033998  0.47683631    -0.80200
C113        C  0.29764344  0.29651866  0.34785805     0.93700
C114        C  0.43631426  0.21111100  0.33375047     0.93500
Mg115      Mg  0.34124241  0.33176064  0.56612475     1.58000
O116        O  0.30992002  0.31324916  0.63197896    -0.80100
O117        O  0.37212055  0.35680967  0.50273940    -0.74300
O118        O  0.32991167  0.28025727  0.34544363    -0.80200
O119        O  0.45197817  0.11450331  0.44986009    -0.81900
O120        O  0.42028707  0.21880280  0.65496586    -0.80200
C121        C  0.37280667  0.34576807  0.46062023     0.88000
O122        O  0.38392357  0.28459111  0.58008196    -0.87300
O123        O  0.31375727  0.28023894  0.52698197    -0.87500
O124        O  0.31320978  0.22109954  0.57165319    -0.74500
Mg125      Mg  0.38221684  0.27731258  0.39010197     1.58000
O126        O  0.28368718  0.31059336  0.38513265    -0.81900
H127        H  0.47981278  0.25971047  0.46870089    -0.05600
O128        O  0.39383804  0.18689669  0.55477319    -0.87200
H129        H  0.36096372  0.13353534  0.56298402    -0.05400
H130        H  0.41989348  0.33478943  0.58939789    -0.05600
C131        C  0.37738780  0.15327841  0.53979126     0.87900
C132        C  0.45238542  0.25190692  0.45723230     0.88500
C133        C  0.41538503  0.30002866  0.57905354     0.88600
H134        H  0.27038176  0.23933812  0.53171797    -0.05600
O135        O  0.30788797  0.22222849  0.43595767    -0.74600
Mg136      Mg  0.36797897  0.22173794  0.61031262     1.58000
H137        H  0.33030301  0.16425537  0.41101083    -0.05600
C138        C  0.46502159  0.10316254  0.48834984     0.93600
O139        O  0.46650948  0.18845241  0.61528335    -0.81800
C140        C  0.45255530  0.20254096  0.65255431     0.93600
O141        O  0.41227869  0.24215438  0.33202788    -0.81800
Mg142      Mg  0.29994456  0.29635260  0.45810508     1.58200
O143        O  0.46335119  0.12870033  0.52357331    -0.80200
O144        O  0.29821870  0.38455189  0.55054722    -0.81900
O145        O  0.18647342  0.71881196  0.47333015    -0.87400
C146        C  0.08484608  0.69902312  0.42125634     0.88600
Mg147      Mg  0.20028684  0.70269898  0.54220674     1.58100
O148        O  0.10639295  0.81215426  0.44553928    -0.87200
O149        O  0.18702121  0.77795187  0.42865972    -0.74500
C150        C  0.06392031  0.78794726  0.66656289     0.93600
O151        O  0.12811040  0.64224337  0.49757189    -0.74300
O152        O  0.08795443  0.75690200  0.66828559    -0.81800
Mg153      Mg  0.15898917  0.66729145  0.43418612     1.58000
C154        C  0.03520893  0.89588865  0.51196240     0.93600
O155        O  0.19031316  0.68580574  0.36833259    -0.80100
H156        H  0.13926511  0.86551631  0.43732611    -0.05400
C157        C  0.04784586  0.74714443  0.54308156     0.88500
O158        O  0.19234369  0.77682353  0.56435225    -0.74600
O159        O  0.11630741  0.71446050  0.42022771    -0.87400
O160        O  0.03687916  0.87035032  0.47673936    -0.80200
C161        C  0.04767823  0.79651988  0.34775677     0.93700
C162        C  0.18634805  0.71110773  0.33364860     0.93500
Mg163      Mg  0.09127833  0.83176238  0.56602483     1.58000
O164        O  0.05995549  0.81324799  0.63187815    -0.80100
O165        O  0.12215612  0.85681409  0.50263904    -0.74300
O166        O  0.07994586  0.78025641  0.34534382    -0.80200
O167        O  0.20201258  0.61450000  0.44976525    -0.81900
O168        O  0.17032248  0.71880325  0.65486584    -0.80200
C169        C  0.12284247  0.84577384  0.46051950     0.88000
O170        O  0.13396044  0.78459519  0.57998113    -0.87300
O171        O  0.06379325  0.78024341  0.52687933    -0.87500
O172        O  0.06324639  0.72110335  0.57154996    -0.74500
Mg173      Mg  0.13225239  0.77731509  0.38999964     1.58000
O174        O  0.03372302  0.81060131  0.38502970    -0.81900
H175        H  0.22984818  0.75971172  0.46859362    -0.05600
O176        O  0.14387415  0.68690418  0.55467099    -0.87200
H177        H  0.11100148  0.63354318  0.56288440    -0.05400
H178        H  0.16992845  0.83479569  0.58929621    -0.05600
C179        C  0.12742408  0.65328460  0.53969124     0.87900
C180        C  0.20242220  0.75191011  0.45712748     0.88500
C181        C  0.16542128  0.80003476  0.57895182     0.88600
H182        H  0.02041709  0.73934039  0.53161300    -0.05600
O183        O  0.05792429  0.72223614  0.43585440    -0.74600
Mg184      Mg  0.11801542  0.72174148  0.61021086     1.58000
H185        H  0.08033735  0.66426082  0.41091073    -0.05600
C186        C  0.21505060  0.60316503  0.48826005     0.93600
O187        O  0.21654624  0.68846172  0.61517958    -0.81800
C188        C  0.20259127  0.70254358  0.65245241     0.93600
O189        O  0.16231358  0.74215263  0.33192651    -0.81800
Mg190      Mg  0.04997979  0.79636066  0.45800300     1.58200
O191        O  0.21338103  0.62871109  0.52347675    -0.80200
O192        O  0.04825325  0.88454882  0.55045186    -0.81900
C193        C  0.48135129  0.05930988  0.49267758    -0.17600
C194        C  0.49341453  0.02169342  0.49726840     0.06500
C195        C  0.00681484  0.97735708  0.50304356     0.08300
C196        C  0.01887840  0.93974080  0.50763453    -0.18500
C197        C  0.26886000  0.43974186  0.50770572    -0.17600
C198        C  0.25680777  0.47735807  0.50307350     0.06500
C199        C  0.24342183  0.52169251  0.49723920     0.08300
C200        C  0.23136993  0.55930896  0.49260716    -0.18500
C201        C  0.47456106  0.79827690  0.80708693    -0.17600
C202        C  0.49455809  0.79843192  0.77426950     0.06500
C203        C  0.01891647  0.79695202  0.73675377     0.08300
C204        C  0.03977360  0.79398407  0.70489321    -0.18500
C205        C  0.02570939  0.79826058  0.30708512    -0.17600
C206        C  0.00571352  0.79842678  0.27426690     0.06500
C207        C  0.48135510  0.79696108  0.23675084     0.08300
C208        C  0.46049712  0.79400268  0.20489044    -0.18500
C209        C  0.22456194  0.70080941  0.69312302    -0.17600
C210        C  0.24455923  0.70065195  0.72594011     0.06500
C211        C  0.26891793  0.70212911  0.76345558     0.08300
C212        C  0.28977478  0.70509608  0.79531643    -0.18500
C213        C  0.21049609  0.70507573  0.29531905    -0.17600
C214        C  0.23135382  0.70211820  0.26345837     0.06500
C215        C  0.25571221  0.70065528  0.22594237     0.08300
C216        C  0.27570823  0.70082422  0.19312439    -0.18500
C217        C  0.03973898  0.20512519  0.79541751    -0.17600
C218        C  0.01888209  0.20215207  0.76355726     0.06500
C219        C  0.49452371  0.20066476  0.72604193     0.08300
C220        C  0.47452656  0.20081370  0.69322468    -0.18500
C221        C  0.02567665  0.20084219  0.19322697    -0.17600
C222        C  0.00568107  0.20067016  0.22604547     0.06500
C223        C  0.48132263  0.20212821  0.26356179     0.08300
C224        C  0.46046411  0.20508193  0.29542212    -0.18500
C225        C  0.28974005  0.29398836  0.70499519    -0.17600
C226        C  0.26888343  0.29696025  0.73685581     0.06500
C227        C  0.24452473  0.29844487  0.77437095     0.08300
C228        C  0.22452722  0.29829322  0.80718777    -0.18500
C229        C  0.21046323  0.29403388  0.20499061    -0.17600
C230        C  0.23132141  0.29698615  0.23685135     0.06500
C231        C  0.25567973  0.29844169  0.27436776     0.08300
C232        C  0.27567547  0.29826683  0.30718600    -0.18500
C233        C  0.01885837  0.05936511  0.99267756    -0.17600
C234        C  0.00680682  0.02174326  0.99726872     0.06500
C235        C  0.49342268  0.97739983  0.00304323     0.08300
C236        C  0.48137152  0.93977776  0.00763406    -0.18500
C237        C  0.26888013  0.55934576  0.99260468    -0.17600
C238        C  0.25681575  0.52173519  0.99723670     0.06500
C239        C  0.24341362  0.47740796  0.00307152     0.08300
C240        C  0.23134970  0.43979719  0.00770366    -0.18500
O241        O  0.68643865  0.28030082  0.02698005    -0.87400
C242        C  0.58481050  0.30008926  0.07905529     0.88600
Mg243      Mg  0.70025242  0.29641206  0.95810345     1.58100
O244        O  0.60635905  0.18695900  0.05477096    -0.87200
O245        O  0.68698681  0.22116172  0.07165122    -0.74500
C246        C  0.56388481  0.21116444  0.83374828     0.93600
O247        O  0.62807633  0.35687023  0.00273801    -0.74300
O248        O  0.58791806  0.24221060  0.83202559    -0.81800
Mg249      Mg  0.65895496  0.33182204  0.06612405     1.58000
C250        C  0.53518023  0.10322153  0.98834823     0.93600
O251        O  0.69027930  0.31330645  0.13197777    -0.80100
H252        H  0.63923097  0.13359893  0.06298191    -0.05400
C253        C  0.54781050  0.25196886  0.95723031     0.88500
O254        O  0.69230773  0.22228762  0.93595918    -0.74600
O255        O  0.61627239  0.28465263  0.08008332    -0.87400
O256        O  0.53684964  0.12875985  0.02357135    -0.80200
C257        C  0.54764465  0.20258783  0.15255473     0.93700
C258        C  0.68631408  0.28800417  0.16666162     0.93500
Mg259      Mg  0.59124376  0.16735098  0.93428581     1.58000
O260        O  0.55992058  0.18586405  0.86843322    -0.80100
O261        O  0.62212208  0.14229970  0.99767098    -0.74300
O262        O  0.57991146  0.21885391  0.15496800    -0.80200
O263        O  0.70198005  0.38461299  0.05054323    -0.81900
O264        O  0.67028687  0.28030671  0.84544536    -0.80200
C265        C  0.62280915  0.15333960  0.03979076     0.88000
O266        O  0.63392473  0.21451795  0.92032980    -0.87300
O267        O  0.56375819  0.21886913  0.97343169    -0.87500
O268        O  0.56321152  0.27801003  0.92876184    -0.74500
Mg269      Mg  0.63221796  0.22179786  0.11031092     1.58000
O270        O  0.53368985  0.18850688  0.11528131    -0.81900
H271        H  0.72981565  0.23940114  0.03171642    -0.05600
O272        O  0.64383989  0.31220905  0.94563912    -0.87200
H273        H  0.61096834  0.36557007  0.93742579    -0.05400
H274        H  0.66989198  0.16431309  0.91101368    -0.05600
C275        C  0.62739005  0.34582906  0.96061853     0.87900
C276        C  0.70238730  0.24720330  0.04318338     0.88500
C277        C  0.66538499  0.19907795  0.92135950     0.88600
H278        H  0.52038510  0.25977257  0.96869838    -0.05600
O279        O  0.55788878  0.27687501  0.06445798    -0.74600
Mg280      Mg  0.61797994  0.27737126  0.89010005     1.58000
H281        H  0.58030134  0.33484917  0.08940093    -0.05600
C282        C  0.71502176  0.39594539  0.01204940     0.93600
O283        O  0.71651206  0.31064680  0.88513023    -0.81800
C284        C  0.70255638  0.29656402  0.84785814     0.93600
O285        O  0.66227872  0.25696031  0.16838395    -0.81800
Mg286      Mg  0.54994576  0.20275033  0.04230820     1.58200
O287        O  0.71335134  0.37039907  0.97683289    -0.80200
O288        O  0.54822050  0.11456381  0.94985759    -0.81900
O289        O  0.93647258  0.78027326  0.02687890    -0.87400
C290        C  0.83484588  0.80006346  0.07895350     0.88600
Mg291      Mg  0.95028576  0.79639212  0.95800288     1.58100
O292        O  0.85639113  0.68693266  0.05467052    -0.87200
O293        O  0.93701921  0.72113178  0.07154735    -0.74500
C294        C  0.81392071  0.71113299  0.83364735     0.93600
O295        O  0.87810860  0.85684107  0.00264066    -0.74300
O296        O  0.83795449  0.74217876  0.83192523    -0.81800
Mg297      Mg  0.90898767  0.83178989  0.06602633     1.58000
C298        C  0.78520879  0.60319720  0.98825921     0.93600
O299        O  0.94031265  0.81327346  0.13187803    -0.80100
H300        H  0.88926240  0.63356967  0.06288706    -0.05400
C301        C  0.79784394  0.75193960  0.95712548     0.88500
O302        O  0.94234306  0.72226657  0.93585413    -0.74600
O303        O  0.86630630  0.78462281  0.07998289    -0.87400
O304        O  0.78687894  0.62874375  0.02347546    -0.80200
C305        C  0.79767688  0.70256743  0.15245287     0.93700
C306        C  0.93634839  0.78797105  0.16656161     0.93500
Mg307      Mg  0.84127714  0.66731953  0.93418708     1.58000
O308        O  0.80995516  0.68583240  0.86833219    -0.80100
O309        O  0.87215451  0.64227036  0.99757307    -0.74300
O310        O  0.82994580  0.71882650  0.15486725    -0.80200
O311        O  0.95201073  0.88457761  0.05045364    -0.81900
O312        O  0.92032280  0.78028074  0.84534553    -0.80200
C313        C  0.87284007  0.65331204  0.03969203     0.88000
O314        O  0.88395952  0.71448871  0.92022942    -0.87300
O315        O  0.81379245  0.71884203  0.97332939    -0.87500
O316        O  0.81324491  0.77798079  0.92865746    -0.74500
Mg317      Mg  0.88225133  0.72176816  0.11020990     1.58000
O318        O  0.78372031  0.68849185  0.11517870    -0.81900
H319        H  0.97984559  0.73936999  0.03161166    -0.05600
O320        O  0.89387248  0.81218353  0.94553925    -0.87200
H321        H  0.86099794  0.86554466  0.93732772    -0.05400
H322        H  0.91993099  0.66428657  0.91091137    -0.05600
C323        C  0.87742183  0.84580156  0.96052097     0.87900
C324        C  0.95242034  0.74717331  0.04307949     0.88500
C325        C  0.91542117  0.69905299  0.92125785     0.88600
H326        H  0.77041643  0.75974211  0.96859198    -0.05600
O327        O  0.80792345  0.77685352  0.06435232    -0.74600
Mg328      Mg  0.86801453  0.77734270  0.88999909     1.58000
H329        H  0.83033933  0.83482399  0.08929844    -0.05600
C330        C  0.96505038  0.89592089  0.01196294     0.93600
O331        O  0.96654377  0.81063269  0.88502937    -0.81800
C332        C  0.95259023  0.79654494  0.84775770     0.93600
O333        O  0.91231351  0.75692687  0.16828397    -0.81800
Mg334      Mg  0.79997861  0.70272987  0.04220623     1.58200
O335        O  0.96338103  0.87038312  0.97673940    -0.80200
O336        O  0.79825150  0.61452913  0.94976590    -0.81900
O337        O  0.93643773  0.21880754  0.47343339    -0.87400
C338        C  0.83481042  0.19901821  0.42135733     0.88600
Mg339      Mg  0.95025125  0.20269032  0.54230940     1.58100
O340        O  0.85635709  0.31214736  0.44564204    -0.87200
O341        O  0.93698488  0.27794843  0.42876439    -0.74500
C342        C  0.81388519  0.28794892  0.66666398     0.93600
O343        O  0.87807467  0.14223921  0.49767149    -0.74300
O344        O  0.83791830  0.25690230  0.66838623    -0.81800
Mg345      Mg  0.90895352  0.16729040  0.43428588     1.58000
C346        C  0.78518007  0.39588632  0.51205273     0.93600
O347        O  0.94027867  0.18580821  0.36843393    -0.80100
H348        H  0.88922701  0.36550775  0.43742809    -0.05400
C349        C  0.79780899  0.24714085  0.54318520     0.88500
O350        O  0.94230704  0.27681502  0.56445662    -0.74600
O351        O  0.86627117  0.21445747  0.42032827    -0.87400
O352        O  0.78684953  0.37033996  0.47683631    -0.80200
C353        C  0.79764335  0.29651864  0.34785806     0.93700
C354        C  0.93631426  0.21111099  0.33375045     0.93500
Mg355      Mg  0.84124238  0.33176064  0.56612476     1.58000
O356        O  0.80991999  0.31324916  0.63197893    -0.80100
O357        O  0.87212047  0.35680961  0.50273952    -0.74300
O358        O  0.82991159  0.28025734  0.34544362    -0.80200
O359        O  0.95197814  0.11450332  0.44986009    -0.81900
O360        O  0.92028706  0.21880279  0.65496585    -0.80200
C361        C  0.87280670  0.34576811  0.46062014     0.88000
O362        O  0.88392356  0.28459110  0.58008195    -0.87300
O363        O  0.81375721  0.28023895  0.52698201    -0.87500
O364        O  0.81320984  0.22109949  0.57165321    -0.74500
Mg365      Mg  0.88221687  0.27731258  0.39010197     1.58000
O366        O  0.78368713  0.31059341  0.38513266    -0.81900
H367        H  0.97981252  0.25971025  0.46870078    -0.05600
O368        O  0.89383812  0.18689667  0.55477318    -0.87200
H369        H  0.86096373  0.13353546  0.56298403    -0.05400
H370        H  0.91989345  0.33478945  0.58939785    -0.05600
C371        C  0.87738782  0.15327844  0.53979126     0.87900
C372        C  0.95238556  0.25190687  0.45723233     0.88500
C373        C  0.91538502  0.30002866  0.57905353     0.88600
H374        H  0.77038144  0.23933782  0.53171787    -0.05600
O375        O  0.80788793  0.22222849  0.43595767    -0.74600
Mg376      Mg  0.86797902  0.22173793  0.61031260     1.58000
H377        H  0.83030298  0.16425537  0.41101083    -0.05600
C378        C  0.96502157  0.10316254  0.48834983     0.93600
O379        O  0.96650950  0.18845242  0.61528338    -0.81800
C380        C  0.95255529  0.20254095  0.65255433     0.93600
O381        O  0.91227869  0.24215437  0.33202782    -0.81800
Mg382      Mg  0.79994452  0.29635259  0.45810508     1.58200
O383        O  0.96335123  0.12870034  0.52357331    -0.80200
O384        O  0.79821867  0.38455186  0.55054722    -0.81900
O385        O  0.68647342  0.71881191  0.47333013    -0.87400
C386        C  0.58484612  0.69902313  0.42125636     0.88600
Mg387      Mg  0.70028684  0.70269898  0.54220674     1.58100
O388        O  0.60639292  0.81215427  0.44553927    -0.87200
O389        O  0.68702124  0.77795190  0.42865971    -0.74500
C390        C  0.56392045  0.78794729  0.66656295     0.93600
O391        O  0.62811035  0.64224338  0.49757189    -0.74300
O392        O  0.58795457  0.75690206  0.66828558    -0.81800
Mg393      Mg  0.65898919  0.66729143  0.43418613     1.58000
C394        C  0.53520890  0.89588863  0.51196241     0.93600
O395        O  0.69031317  0.68580563  0.36833256    -0.80100
H396        H  0.63926508  0.86551631  0.43732611    -0.05400
C397        C  0.54784557  0.74714430  0.54308147     0.88500
O398        O  0.69234368  0.77682354  0.56435224    -0.74600
O399        O  0.61630751  0.71446047  0.42022763    -0.87400
O400        O  0.53687913  0.87035029  0.47673936    -0.80200
C401        C  0.54767821  0.79651988  0.34775679     0.93700
C402        C  0.68634810  0.71110776  0.33364863     0.93500
Mg403      Mg  0.59127833  0.83176239  0.56602485     1.58000
O404        O  0.55995553  0.81324786  0.63187814    -0.80100
O405        O  0.62215608  0.85681409  0.50263904    -0.74300
O406        O  0.57994584  0.78025640  0.34534382    -0.80200
O407        O  0.70201255  0.61449998  0.44976526    -0.81900
O408        O  0.67032252  0.71880329  0.65486586    -0.80200
C409        C  0.62284243  0.84577385  0.46051950     0.88000
O410        O  0.63396045  0.78459520  0.57998113    -0.87300
O411        O  0.56379347  0.78024350  0.52687937    -0.87500
O412        O  0.56324671  0.72110338  0.57155007    -0.74500
Mg413      Mg  0.63225243  0.77731512  0.38999965     1.58000
O414        O  0.53372299  0.81060129  0.38502971    -0.81900
H415        H  0.72984896  0.75971179  0.46859379    -0.05600
O416        O  0.64387418  0.68690417  0.55467097    -0.87200
H417        H  0.61100146  0.63354326  0.56288439    -0.05400
H418        H  0.66992845  0.83479571  0.58929618    -0.05600
C419        C  0.62742407  0.65328461  0.53969123     0.87900
C420        C  0.70242203  0.75191004  0.45712741     0.88500
C421        C  0.66542128  0.80003478  0.57895180     0.88600
H422        H  0.52042027  0.73934104  0.53161419    -0.05600
O423        O  0.55792426  0.72223616  0.43585443    -0.74600
Mg424      Mg  0.61801539  0.72174150  0.61021087     1.58000
H425        H  0.58033739  0.66426098  0.41091080    -0.05600
C426        C  0.71505056  0.60316500  0.48826005     0.93600
O427        O  0.71654623  0.68846170  0.61517960    -0.81800
C428        C  0.70259129  0.70254356  0.65245245     0.93600
O429        O  0.66231361  0.74215271  0.33192656    -0.81800
Mg430      Mg  0.54997979  0.79636067  0.45800303     1.58200
O431        O  0.71338100  0.62871108  0.52347675    -0.80200
O432        O  0.54825322  0.88454879  0.55045187    -0.81900
C433        C  0.98135124  0.05930986  0.49267757    -0.17600
C434        C  0.99341441  0.02169336  0.49726841     0.06500
C435        C  0.50681486  0.97735711  0.50304356     0.08300
C436        C  0.51887848  0.93974086  0.50763451    -0.18500
C437        C  0.76886008  0.43974193  0.50770571    -0.17600
C438        C  0.75680777  0.47735811  0.50307349     0.06500
C439        C  0.74342190  0.52169256  0.49723919     0.08300
C440        C  0.73136989  0.55930894  0.49260716    -0.18500
C441        C  0.97456101  0.79827690  0.80708696    -0.17600
C442        C  0.99455806  0.79843192  0.77426954     0.06500
C443        C  0.51891658  0.79695202  0.73675381     0.08300
C444        C  0.53977366  0.79398399  0.70489322    -0.18500
C445        C  0.52570937  0.79826058  0.30708514    -0.17600
C446        C  0.50571351  0.79842678  0.27426689     0.06500
C447        C  0.98135512  0.79696108  0.23675090     0.08300
C448        C  0.96049714  0.79400269  0.20489053    -0.18500
C449        C  0.72456194  0.70080939  0.69312304    -0.17600
C450        C  0.74455928  0.70065195  0.72594006     0.06500
C451        C  0.76891790  0.70212911  0.76345554     0.08300
C452        C  0.78977481  0.70509606  0.79531633    -0.18500
C453        C  0.71049615  0.70507563  0.29531904    -0.17600
C454        C  0.73135384  0.70211818  0.26345828     0.06500
C455        C  0.75571224  0.70065531  0.22594229     0.08300
C456        C  0.77570836  0.70082426  0.19312444    -0.18500
C457        C  0.53973896  0.20512519  0.79541754    -0.17600
C458        C  0.51888209  0.20215207  0.76355727     0.06500
C459        C  0.99452371  0.20066476  0.72604195     0.08300
C460        C  0.97452653  0.20081370  0.69322472    -0.18500
C461        C  0.52567665  0.20084219  0.19322693    -0.17600
C462        C  0.50568099  0.20067015  0.22604535     0.06500
C463        C  0.98132263  0.20212821  0.26356184     0.08300
C464        C  0.96046416  0.20508195  0.29542220    -0.18500
C465        C  0.78974008  0.29398839  0.70499529    -0.17600
C466        C  0.76888340  0.29696025  0.73685586     0.06500
C467        C  0.74452478  0.29844487  0.77437102     0.08300
C468        C  0.72452719  0.29829322  0.80718775    -0.18500
C469        C  0.71046320  0.29403389  0.20499063    -0.17600
C470        C  0.73132139  0.29698615  0.23685137     0.06500
C471        C  0.75567971  0.29844168  0.27436776     0.08300
C472        C  0.77567546  0.29826686  0.30718597    -0.18500
C473        C  0.51885834  0.05936513  0.99267756    -0.17600
C474        C  0.50680681  0.02174327  0.99726872     0.06500
C475        C  0.99342268  0.97739984  0.00304323     0.08300
C476        C  0.98137148  0.93977779  0.00763405    -0.18500
C477        C  0.76888009  0.55934578  0.99260468    -0.17600
C478        C  0.75681582  0.52173515  0.99723670     0.06500
C479        C  0.74341361  0.47740792  0.00307153     0.08300
C480        C  0.73134978  0.43979711  0.00770368    -0.18500
loop_ 
_geom_bond_atom_site_label_1 
_geom_bond_atom_site_label_2 
_geom_bond_distance 
_geom_bond_site_symmetry_2 
_ccdc_geom_bond_type 
O1           Mg3   2.135   1_554  S
O1           Mg9   2.146       .  S
O1           C36   1.237       .  S
C2           O15   1.238       .  S
C2           O39   1.271       .  A
C2           H41   1.081       .  S
Mg3          O32   2.146       .  S
Mg3          O47   2.300       .  S
Mg3          O43   2.259       .  S
Mg3          O14   2.297       .  S
O4          Mg46   2.146       .  S
O4          Mg29   2.136       .  S
O4           C25   1.238       .  S
O5           C36   1.271       .  A
O5          Mg29   2.299       .  S
C6            O8   1.272       .  A
C6           O20   1.275       .  A
C6          C217   1.437       .  S
O7           C35   1.272   1_554  A
O7           Mg9   2.299       .  S
O8          Mg40   2.267       .  S
Mg9          O15   2.135       .  S
Mg9          O23   2.265       .  S
Mg9          O11   2.311       .  S
C10          O48   1.271       .  A
C10          O16   1.273   1_556  A
C10         C233   1.434       .  S
O11          C18   1.275       .  A
H12          C25   1.081       .  S
C13          O27   1.237       .  S
C13          O28   1.271       .  A
C13          H38   1.081       .  S
O14          C37   1.271       .  A
O15         Mg29   2.146       .  S
O16         Mg46   2.300       .  S
C17          O30   1.270       .  A
C17          O22   1.275       .  A
C17         C221   1.437       .  S
C18          O45   1.272       .  A
C18         C229   1.437       .  S
Mg19         O26   2.134       .  S
Mg19         O27   2.146       .  S
Mg19         O20   2.311       .  S
Mg19         O21   2.299       .  S
Mg19         O48   2.265       .  S
O21          C25   1.272   1_556  A
O22         Mg29   2.318       .  S
O23          C42   1.271       .  A
O24          C44   1.275       .  A
O24         Mg40   2.318       .  S
O26         Mg40   2.146       .  S
O26          C37   1.238       .  S
O27         Mg46   2.135   1_556  S
O28         Mg40   2.299       .  S
Mg29         O45   2.267       .  S
O30         Mg46   2.259       .  S
H31          C36   1.081       .  S
O32         Mg40   2.136       .  S
O32          C35   1.238       .  S
H33          C35   1.081       .  S
H34          C37   1.081       .  S
O39         Mg46   2.298       .  S
C42          O47   1.273   1_554  A
C42         C240   1.434       .  S
O43          C44   1.270       .  A
C44         C228   1.437       .  S
O49         Mg51   2.135   1_554  S
O49         Mg57   2.146       .  S
O49          C84   1.237       .  S
C50          O63   1.238       .  S
C50          O87   1.271       .  A
C50          H89   1.081       .  S
Mg51         O80   2.146       .  S
Mg51         O95   2.300       .  S
Mg51         O91   2.259       .  S
Mg51         O62   2.298       .  S
O52         Mg94   2.146       .  S
O52         Mg77   2.136       .  S
O52          C73   1.238       .  S
O53          C84   1.271       .  A
O53         Mg77   2.299       .  S
C54          O56   1.272       .  A
C54          O68   1.275       .  A
C54         C212   1.437       .  S
O55          C83   1.272   1_554  A
O55         Mg57   2.299       .  S
O56         Mg88   2.267       .  S
Mg57         O63   2.134       .  S
Mg57         O71   2.265       .  S
Mg57         O59   2.311       .  S
C58          O96   1.271       .  A
C58          O64   1.273   1_556  A
C58         C237   1.434       .  S
O59          C66   1.275       .  A
H60          C73   1.081       .  S
C61          O75   1.237       .  S
C61          O76   1.271       .  A
C61          H86   1.081       .  S
O62          C85   1.271       .  A
O63         Mg77   2.146       .  S
O64         Mg94   2.300       .  S
C65          O78   1.270       .  A
C65          O70   1.275       .  A
C65         C216   1.437       .  S
C66          O93   1.272       .  A
C66         C208   1.437       .  S
Mg67         O74   2.135       .  S
Mg67         O75   2.146       .  S
Mg67         O68   2.311       .  S
Mg67         O69   2.299       .  S
Mg67         O96   2.265       .  S
O69          C73   1.272   1_556  A
O70         Mg77   2.318       .  S
O71          C90   1.271       .  A
O72          C92   1.275       .  A
O72         Mg88   2.318       .  S
O74         Mg88   2.146       .  S
O74          C85   1.238       .  S
O75         Mg94   2.135   1_556  S
O76         Mg88   2.299       .  S
Mg77         O93   2.267       .  S
O78         Mg94   2.259       .  S
H79          C84   1.081       .  S
O80         Mg88   2.136       .  S
O80          C83   1.238       .  S
H81          C83   1.081       .  S
H82          C85   1.081       .  S
O87         Mg94   2.297       .  S
C90          O95   1.273   1_554  A
C90         C236   1.434       .  S
O91          C92   1.270       .  A
C92         C201   1.437       .  S
O97         Mg99   2.135       .  S
O97        Mg105   2.146       .  S
O97         C132   1.237       .  S
C98         O111   1.238       .  S
C98         O135   1.271       .  A
C98         H137   1.081       .  S
Mg99        O128   2.146       .  S
Mg99        O143   2.300       .  S
Mg99        O139   2.259       .  S
Mg99        O110   2.298       .  S
O100       Mg142   2.146       .  S
O100       Mg125   2.136       .  S
O100        C121   1.238       .  S
O101        C132   1.271       .  A
O101       Mg125   2.299       .  S
C102        O104   1.272       .  A
C102        O116   1.275       .  A
C102        C225   1.437       .  S
O103        C131   1.272       .  A
O103       Mg105   2.299       .  S
O104       Mg136   2.267       .  S
Mg105       O111   2.135       .  S
Mg105       O119   2.265       .  S
Mg105       O107   2.311       .  S
C106        O144   1.271       .  A
C106        O112   1.273       .  A
C106        C197   1.434       .  S
O107        C114   1.275       .  A
H108        C121   1.081       .  S
C109        O123   1.237       .  S
C109        O124   1.271       .  A
C109        H134   1.081       .  S
O110        C133   1.271       .  A
O111       Mg125   2.146       .  S
O112       Mg142   2.300       .  S
C113        O126   1.270       .  A
C113        O118   1.275       .  A
C113        C232   1.437       .  S
C114        O141   1.272       .  A
C114        C224   1.437       .  S
Mg115       O122   2.135       .  S
Mg115       O123   2.146       .  S
Mg115       O116   2.311       .  S
Mg115       O117   2.299       .  S
Mg115       O144   2.265       .  S
O117        C121   1.272       .  A
O118       Mg125   2.318       .  S
O119        C138   1.271       .  A
O120        C140   1.275       .  A
O120       Mg136   2.318       .  S
O122       Mg136   2.146       .  S
O122        C133   1.238       .  S
O123       Mg142   2.135       .  S
O124       Mg136   2.299       .  S
Mg125       O141   2.267       .  S
O126       Mg142   2.259       .  S
H127        C132   1.081       .  S
O128       Mg136   2.136       .  S
O128        C131   1.238       .  S
H129        C131   1.081       .  S
H130        C133   1.081       .  S
O135       Mg142   2.297       .  S
C138        O143   1.273       .  A
C138        C193   1.434       .  S
O139        C140   1.270       .  A
C140        C220   1.437       .  S
O145       Mg147   2.135       .  S
O145       Mg153   2.146       .  S
O145        C180   1.237       .  S
C146        O159   1.238       .  S
C146        O183   1.271       .  A
C146        H185   1.081       .  S
Mg147       O176   2.146       .  S
Mg147       O191   2.300       .  S
Mg147       O187   2.259       .  S
Mg147       O158   2.297       .  S
O148       Mg190   2.146       .  S
O148       Mg173   2.136       .  S
O148        C169   1.238       .  S
O149        C180   1.271       .  A
O149       Mg173   2.299       .  S
C150        O152   1.272       .  A
C150        O164   1.275       .  A
C150        C204   1.437       .  S
O151        C179   1.272       .  A
O151       Mg153   2.299       .  S
O152       Mg184   2.267       .  S
Mg153       O159   2.135       .  S
Mg153       O167   2.265       .  S
Mg153       O155   2.311       .  S
C154        O192   1.271       .  A
C154        O160   1.273       .  A
C154        C196   1.434       .  S
O155        C162   1.275       .  A
H156        C169   1.081       .  S
C157        O171   1.237       .  S
C157        O172   1.271       .  A
C157        H182   1.081       .  S
O158        C181   1.271       .  A
O159       Mg173   2.146       .  S
O160       Mg190   2.300       .  S
C161        O174   1.270       .  A
C161        O166   1.275       .  A
C161        C205   1.437       .  S
C162        O189   1.272       .  A
C162        C213   1.437       .  S
Mg163       O170   2.134       .  S
Mg163       O171   2.146       .  S
Mg163       O164   2.311       .  S
Mg163       O165   2.299       .  S
Mg163       O192   2.265       .  S
O165        C169   1.272       .  A
O166       Mg173   2.318       .  S
O167        C186   1.271       .  A
O168        C188   1.275       .  A
O168       Mg184   2.318       .  S
O170       Mg184   2.146       .  S
O170        C181   1.238       .  S
O171       Mg190   2.135       .  S
O172       Mg184   2.299       .  S
Mg173       O189   2.267       .  S
O174       Mg190   2.259       .  S
H175        C180   1.081       .  S
O176       Mg184   2.136       .  S
O176        C179   1.238       .  S
H177        C179   1.081       .  S
H178        C181   1.081       .  S
O183       Mg190   2.298       .  S
C186        O191   1.273       .  A
C186        C200   1.434       .  S
O187        C188   1.270       .  A
C188        C209   1.437       .  S
C193        C194   1.205       .  T
C194        C435   1.411   1_545  S
C195        C196   1.205       .  T
C195        C434   1.411   1_465  S
C197        C198   1.205       .  T
C198        C199   1.411       .  S
C199        C200   1.205       .  T
C201        C202   1.207       .  T
C202        C443   1.414       .  S
C203        C204   1.207       .  T
C203        C442   1.414   1_455  S
C205        C206   1.207       .  T
C206        C447   1.414   1_455  S
C207        C208   1.207       .  T
C207        C446   1.414       .  S
C209        C210   1.207       .  T
C210        C211   1.414       .  S
C211        C212   1.207       .  T
C213        C214   1.207       .  T
C214        C215   1.414       .  S
C215        C216   1.207       .  T
C217        C218   1.207       .  T
C218        C459   1.414   1_455  S
C219        C220   1.207       .  T
C219        C458   1.414       .  S
C221        C222   1.207       .  T
C222        C463   1.414   1_455  S
C223        C224   1.207       .  T
C223        C462   1.414       .  S
C225        C226   1.207       .  T
C226        C227   1.414       .  S
C227        C228   1.207       .  T
C229        C230   1.207       .  T
C230        C231   1.414       .  S
C231        C232   1.207       .  T
C233        C234   1.205       .  T
C234        C475   1.411   1_446  S
C235        C236   1.205       .  T
C235        C474   1.411   1_564  S
C237        C238   1.205       .  T
C238        C239   1.411   1_556  S
C239        C240   1.205       .  T
O241       Mg243   2.135   1_554  S
O241       Mg249   2.146       .  S
O241        C276   1.237       .  S
C242        O255   1.238       .  S
C242        O279   1.271       .  A
C242        H281   1.081       .  S
Mg243       O272   2.146       .  S
Mg243       O287   2.300       .  S
Mg243       O283   2.259       .  S
Mg243       O254   2.297       .  S
O244       Mg286   2.146       .  S
O244       Mg269   2.136       .  S
O244        C265   1.238       .  S
O245        C276   1.271       .  A
O245       Mg269   2.299       .  S
C246        O248   1.272       .  A
C246        O260   1.275       .  A
C246        C457   1.437       .  S
O247        C275   1.272   1_554  A
O247       Mg249   2.299       .  S
O248       Mg280   2.267       .  S
Mg249       O255   2.135       .  S
Mg249       O263   2.265       .  S
Mg249       O251   2.311       .  S
C250        O288   1.271       .  A
C250        O256   1.273   1_556  A
C250        C473   1.434       .  S
O251        C258   1.275       .  A
H252        C265   1.081       .  S
C253        O267   1.237       .  S
C253        O268   1.271       .  A
C253        H278   1.081       .  S
O254        C277   1.271       .  A
O255       Mg269   2.146       .  S
O256       Mg286   2.300       .  S
C257        O270   1.270       .  A
C257        O262   1.275       .  A
C257        C461   1.437       .  S
C258        O285   1.272       .  A
C258        C469   1.437       .  S
Mg259       O266   2.134       .  S
Mg259       O267   2.146       .  S
Mg259       O260   2.311       .  S
Mg259       O261   2.299       .  S
Mg259       O288   2.265       .  S
O261        C265   1.272   1_556  A
O262       Mg269   2.318       .  S
O263        C282   1.271       .  A
O264        C284   1.275       .  A
O264       Mg280   2.318       .  S
O266       Mg280   2.146       .  S
O266        C277   1.238       .  S
O267       Mg286   2.135   1_556  S
O268       Mg280   2.299       .  S
Mg269       O285   2.267       .  S
O270       Mg286   2.259       .  S
H271        C276   1.081       .  S
O272       Mg280   2.136       .  S
O272        C275   1.238       .  S
H273        C275   1.081       .  S
H274        C277   1.081       .  S
O279       Mg286   2.298       .  S
C282        O287   1.273   1_554  A
C282        C480   1.434       .  S
O283        C284   1.270       .  A
C284        C468   1.437       .  S
O289       Mg291   2.135   1_554  S
O289       Mg297   2.146       .  S
O289        C324   1.237       .  S
C290        O303   1.238       .  S
C290        O327   1.271       .  A
C290        H329   1.081       .  S
Mg291       O320   2.146       .  S
Mg291       O335   2.300       .  S
Mg291       O331   2.259       .  S
Mg291       O302   2.298       .  S
O292       Mg334   2.146       .  S
O292       Mg317   2.136       .  S
O292        C313   1.238       .  S
O293        C324   1.271       .  A
O293       Mg317   2.299       .  S
C294        O296   1.272       .  A
C294        O308   1.275       .  A
C294        C452   1.437       .  S
O295        C323   1.272   1_554  A
O295       Mg297   2.299       .  S
O296       Mg328   2.267       .  S
Mg297       O303   2.134       .  S
Mg297       O311   2.265       .  S
Mg297       O299   2.311       .  S
C298        O336   1.271       .  A
C298        O304   1.273   1_556  A
C298        C477   1.434       .  S
O299        C306   1.275       .  A
H300        C313   1.081       .  S
C301        O315   1.237       .  S
C301        O316   1.271       .  A
C301        H326   1.081       .  S
O302        C325   1.271       .  A
O303       Mg317   2.146       .  S
O304       Mg334   2.300       .  S
C305        O318   1.270       .  A
C305        O310   1.275       .  A
C305        C456   1.437       .  S
C306        O333   1.272       .  A
C306        C448   1.437       .  S
Mg307       O314   2.135       .  S
Mg307       O315   2.146       .  S
Mg307       O308   2.311       .  S
Mg307       O309   2.299       .  S
Mg307       O336   2.265       .  S
O309        C313   1.272   1_556  A
O310       Mg317   2.318       .  S
O311        C330   1.271       .  A
O312        C332   1.275       .  A
O312       Mg328   2.318       .  S
O314       Mg328   2.146       .  S
O314        C325   1.238       .  S
O315       Mg334   2.135   1_556  S
O316       Mg328   2.299       .  S
Mg317       O333   2.267       .  S
O318       Mg334   2.259       .  S
H319        C324   1.081       .  S
O320       Mg328   2.136       .  S
O320        C323   1.238       .  S
H321        C323   1.081       .  S
H322        C325   1.081       .  S
O327       Mg334   2.297       .  S
C330        O335   1.273   1_554  A
C330        C476   1.434       .  S
O331        C332   1.270       .  A
C332        C441   1.437       .  S
O337       Mg339   2.135       .  S
O337       Mg345   2.146       .  S
O337        C372   1.237       .  S
C338        O351   1.238       .  S
C338        O375   1.271       .  A
C338        H377   1.081       .  S
Mg339       O368   2.146       .  S
Mg339       O383   2.300       .  S
Mg339       O379   2.259       .  S
Mg339       O350   2.298       .  S
O340       Mg382   2.146       .  S
O340       Mg365   2.136       .  S
O340        C361   1.238       .  S
O341        C372   1.271       .  A
O341       Mg365   2.299       .  S
C342        O344   1.272       .  A
C342        O356   1.275       .  A
C342        C465   1.437       .  S
O343        C371   1.272       .  A
O343       Mg345   2.299       .  S
O344       Mg376   2.267       .  S
Mg345       O351   2.135       .  S
Mg345       O359   2.265       .  S
Mg345       O347   2.311       .  S
C346        O384   1.271       .  A
C346        O352   1.273       .  A
C346        C437   1.434       .  S
O347        C354   1.275       .  A
H348        C361   1.081       .  S
C349        O363   1.237       .  S
C349        O364   1.271       .  A
C349        H374   1.081       .  S
O350        C373   1.271       .  A
O351       Mg365   2.146       .  S
O352       Mg382   2.300       .  S
C353        O366   1.270       .  A
C353        O358   1.275       .  A
C353        C472   1.437       .  S
C354        O381   1.272       .  A
C354        C464   1.437       .  S
Mg355       O362   2.135       .  S
Mg355       O363   2.146       .  S
Mg355       O356   2.311       .  S
Mg355       O357   2.299       .  S
Mg355       O384   2.265       .  S
O357        C361   1.272       .  A
O358       Mg365   2.318       .  S
O359        C378   1.271       .  A
O360        C380   1.275       .  A
O360       Mg376   2.318       .  S
O362       Mg376   2.146       .  S
O362        C373   1.238       .  S
O363       Mg382   2.135       .  S
O364       Mg376   2.299       .  S
Mg365       O381   2.267       .  S
O366       Mg382   2.259       .  S
H367        C372   1.081       .  S
O368       Mg376   2.136       .  S
O368        C371   1.238       .  S
H369        C371   1.081       .  S
H370        C373   1.081       .  S
O375       Mg382   2.297       .  S
C378        O383   1.273       .  A
C378        C433   1.434       .  S
O379        C380   1.270       .  A
C380        C460   1.437       .  S
O385       Mg387   2.135       .  S
O385       Mg393   2.146       .  S
O385        C420   1.237       .  S
C386        O399   1.238       .  S
C386        O423   1.271       .  A
C386        H425   1.081       .  S
Mg387       O416   2.146       .  S
Mg387       O431   2.300       .  S
Mg387       O427   2.259       .  S
Mg387       O398   2.297       .  S
O388       Mg430   2.146       .  S
O388       Mg413   2.136       .  S
O388        C409   1.238       .  S
O389        C420   1.271       .  A
O389       Mg413   2.299       .  S
C390        O392   1.272       .  A
C390        O404   1.275       .  A
C390        C444   1.437       .  S
O391        C419   1.272       .  A
O391       Mg393   2.299       .  S
O392       Mg424   2.267       .  S
Mg393       O399   2.135       .  S
Mg393       O407   2.265       .  S
Mg393       O395   2.311       .  S
C394        O432   1.271       .  A
C394        O400   1.273       .  A
C394        C436   1.434       .  S
O395        C402   1.275       .  A
H396        C409   1.081       .  S
C397        O411   1.237       .  S
C397        O412   1.271       .  A
C397        H422   1.081       .  S
O398        C421   1.271       .  A
O399       Mg413   2.146       .  S
O400       Mg430   2.300       .  S
C401        O414   1.270       .  A
C401        O406   1.275       .  A
C401        C445   1.437       .  S
C402        O429   1.272       .  A
C402        C453   1.437       .  S
Mg403       O410   2.134       .  S
Mg403       O411   2.146       .  S
Mg403       O404   2.311       .  S
Mg403       O405   2.299       .  S
Mg403       O432   2.265       .  S
O405        C409   1.272       .  A
O406       Mg413   2.318       .  S
O407        C426   1.271       .  A
O408        C428   1.275       .  A
O408       Mg424   2.318       .  S
O410       Mg424   2.146       .  S
O410        C421   1.238       .  S
O411       Mg430   2.135       .  S
O412       Mg424   2.299       .  S
Mg413       O429   2.267       .  S
O414       Mg430   2.259       .  S
H415        C420   1.081       .  S
O416       Mg424   2.136       .  S
O416        C419   1.238       .  S
H417        C419   1.081       .  S
H418        C421   1.081       .  S
O423       Mg430   2.298       .  S
C426        O431   1.273       .  A
C426        C440   1.434       .  S
O427        C428   1.270       .  A
C428        C449   1.437       .  S
C433        C434   1.205       .  T
C435        C436   1.205       .  T
C437        C438   1.205       .  T
C438        C439   1.411       .  S
C439        C440   1.205       .  T
C441        C442   1.207       .  T
C443        C444   1.207       .  T
C445        C446   1.207       .  T
C447        C448   1.207       .  T
C449        C450   1.207       .  T
C450        C451   1.414       .  S
C451        C452   1.207       .  T
C453        C454   1.207       .  T
C454        C455   1.414       .  S
C455        C456   1.207       .  T
C457        C458   1.207       .  T
C459        C460   1.207       .  T
C461        C462   1.207       .  T
C463        C464   1.207       .  T
C465        C466   1.207       .  T
C466        C467   1.414       .  S
C467        C468   1.207       .  T
C469        C470   1.207       .  T
C470        C471   1.414       .  S
C471        C472   1.207       .  T
C473        C474   1.205       .  T
C475        C476   1.205       .  T
C477        C478   1.205       .  T
C478        C479   1.411   1_556  S
C479        C480   1.205       .  T
