geometry optimzed in LAMMPS
_audit_creation_date              2020-12-01 
_audit_creation_method            'lammps2cif' 
_symmetry_space_group_name_H-M    'P1' 
_symmetry_Int_Tables_number       1 
_symmetry_cell_setting            triclinic 
loop_ 
_symmetry_equiv_pos_as_xyz 
  x,y,z 
_cell_length_a                    29.00879922 
_cell_length_b                    28.782352000136843 
_cell_length_c                    23.581046757078557 
_cell_angle_alpha                 91.86076764627641 
_cell_angle_beta                  89.59786750106028 
_cell_angle_gamma                 96.94879201788702 
loop_ 
_atom_site_label 
_atom_site_type_symbol 
_atom_site_fract_x 
_atom_site_fract_y 
_atom_site_fract_z 
_atom_site_charge 
C1          C  0.16377773  0.99675041  0.28629398     0.82200
N2          N  0.15425406  0.49014099  0.22897457    -0.76100
C3          C  0.18647164  0.50945260  0.18997848     0.84600
N4          N  0.22791763  0.53066555  0.20966383    -0.76100
C5          C  0.24171742  0.02223466  0.26242256     0.84700
N6          N  0.20798680  0.01376191  0.30168602    -0.77800
N7          N  0.15326529  0.47629077  0.09279494    -0.01500
C8          C  0.18808084  0.49426052  0.12806467     0.01100
C9          C  0.22980643  0.49440387  0.09827446    -0.21800
C10         C  0.21981875  0.47517642  0.04475701    -0.22000
C11         C  0.17230897  0.46413345  0.04263202     0.01000
H12         H  0.26433815  0.50588549  0.11420111     0.14700
H13         H  0.24461214  0.46955080  0.01144736     0.14800
N14         N  0.02753749  0.10993826  0.14448359    -0.01500
C15         C  0.04596811  0.14499543  0.11125128     0.01100
C16         C  0.04318161  0.18682519  0.14214540    -0.21800
C17         C  0.02122546  0.17623087  0.19334674    -0.22000
C18         C  0.01139567  0.12818405  0.19348635     0.01000
H19         H  0.05416028  0.22188059  0.12817928     0.14700
H20         H  0.01274542  0.20102357  0.22614025     0.14800
O21         O  0.47269473  0.46535312  0.99990772    -0.76500
C22         C  0.10542214  0.46813193  0.10538972     0.84500
O23         O  0.46494087  0.33579066  0.09417100    -0.77700
O24         O  0.03294487  0.43986441  0.25092684    -0.79100
O25         O  0.48362880  0.04683435  0.10671256    -0.78900
O26         O  0.40758373  0.48093365  0.04009032    -0.77600
Zn27       Zn  0.01389683  0.44070239  0.05842602     1.55700
O28         O  0.04269888  0.03609318  0.16329724    -0.79000
Cd29       Cd  0.44284147  0.48667311  0.11469085     1.59700
Cd30       Cd  0.45352391  0.38580461  0.15820531     1.59600
O31         O  0.40010809  0.48499242  0.18211902    -0.79000
O32         O  0.48374557  0.44064691  0.12624855    -1.89500
Cd33       Cd  0.03429545  0.46580323  0.17408095     1.59900
O34         O  0.38759261  0.40652137  0.18449763    -0.78900
O35         O  0.09233248  0.44409490  0.14706457    -0.77600
C36         C  0.49676473  0.33536853  0.05566836     0.85000
C37         C  0.43192524  0.47710869  0.99575999     0.84600
O38         O  0.07568753  0.48212095  0.07240699    -0.76500
C39         C  0.52034936  0.06180897  0.13322309     0.85400
O40         O  0.52129549  0.37273579  0.04006063    -0.76600
C41         C  0.37581666  0.44763601  0.19677456     0.85600
C42         C  0.01852183  0.39800140  0.26246662     0.85900
O43         O  0.49102709  0.37135201  0.22995734    -0.79000
C44         C  0.05039269  0.12372930  0.95139865     0.82200
N45         N  0.04393825  0.11232433  0.00801065    -0.76100
C46         C  0.06288533  0.14382106  0.05002641     0.84600
N47         N  0.08395927  0.18609514  0.03363294    -0.76100
C48         C  0.07415188  0.20183419  0.98221890     0.84700
N49         N  0.06573540  0.16915612  0.94002796    -0.77800
N50         N  0.11046369  0.48280536  0.37301438    -0.01500
C51         C  0.13956374  0.46767133  0.33192717     0.01100
C52         C  0.16643996  0.43685885  0.35695647    -0.21800
C53         C  0.15680087  0.43630000  0.41397452    -0.22000
C54         C  0.12253589  0.46462957  0.42234932     0.01000
H55         H  0.19532348  0.42181417  0.33733675     0.14700
H56         H  0.17403710  0.41855993  0.44594219     0.14800
N57         N  0.99769772  0.38774169  0.36323626    -0.01500
C58         C  0.01637689  0.36744727  0.40835191     0.01100
C59         C  0.05944701  0.35475045  0.39150955    -0.21800
C60         C  0.06553506  0.36353158  0.33502733    -0.22000
C61         C  0.02716424  0.38323307  0.31928810     0.01000
H62         H  0.08130678  0.33482549  0.41572022     0.14700
H63         H  0.09408394  0.35531320  0.30823302     0.14800
O64         O  0.43738544  0.99891624  0.49948018    -0.76500
C65         C  0.06901835  0.00588286  0.36787484     0.84500
O66         O  0.45039739  0.14466389  0.41668738    -0.77700
O67         O  0.98139207  0.05531427  0.23786402    -0.79100
O68         O  0.43983746  0.42969223  0.40441786    -0.78900
O69         O  0.36846653  0.49871530  0.46142515    -0.77600
Zn70       Zn  0.48162048  0.03393081  0.43778825     1.55700
O71         O  0.45511973  0.43964902  0.31438235    -0.79000
Cd72       Cd  0.40531236  0.48777076  0.39194583     1.59700
Cd73       Cd  0.42667851  0.09405722  0.34709203     1.58000
O74         O  0.36536659  0.98316911  0.32585707    -0.79000
O75         O  0.45200587  0.03848035  0.37159319    -1.89500
Cd76       Cd  0.98340103  0.01124784  0.30729671     1.59900
O77         O  0.36428544  0.05808280  0.30133163    -0.78900
O78         O  0.05379954  0.01292863  0.31932515    -0.77600
C79         C  0.48217644  0.13838109  0.45332361     0.85000
C80         C  0.39276331  0.99136689  0.50349585     0.84600
O81         O  0.04373703  0.01147993  0.41204231    -0.76500
C82         C  0.46062917  0.41753301  0.36012839     0.85400
O83         O  0.49349729  0.09799404  0.46096786    -0.76600
C84         C  0.35096834  0.01331429  0.29455247     0.85600
C85         C  0.48600871  0.10032660  0.24003038     0.85900
O86         O  0.46977820  0.12211426  0.28208505    -0.79000
C87         C  0.49035997  0.33462031  0.44836972     0.82200
N88         N  0.48768010  0.34428704  0.50596916    -0.76100
C89         C  0.47493950  0.30797439  0.54173542     0.84600
N90         N  0.46921062  0.26348995  0.51970107    -0.76100
C91         C  0.48216779  0.25315547  0.46630866     0.84700
N92         N  0.48876791  0.28887377  0.43012432    -0.77800
N93         N  0.03582912  0.07146838  0.85976161    -0.01500
C94         C  0.02193293  0.10022851  0.90292654     0.01100
C95         C  0.98773117  0.12488420  0.88182795    -0.21800
C96         C  0.98223682  0.11351674  0.82513454    -0.22000
C97         C  0.01180342  0.08077829  0.81221690     0.01000
H98         H  0.97237996  0.15282302  0.90387255     0.14700
H99         H  0.96020726  0.12888505  0.79597753     0.14800
N100        N  0.42150349  0.46397024  0.88890790    -0.01500
C101        C  0.39135755  0.47770466  0.84960969     0.01100
C102        C  0.36603249  0.51038533  0.87629054    -0.21800
C103        C  0.37828629  0.51452659  0.93243047    -0.22000
C104        C  0.41222825  0.48582418  0.93925473     0.01000
H105        H  0.33728867  0.52552900  0.85818341     0.14700
H106        H  0.36284615  0.53500576  0.96509484     0.14800
O107        O  0.03998564  0.39005792  0.74735968    -0.76500
C108        C  0.06397248  0.03324549  0.86268886     0.84500
O109        O  0.18593298  0.39801839  0.81710081    -0.77700
O110        O  0.10231250  0.44149116  0.99114630    -0.79100
O111        O  0.46039904  0.39895209  0.85868606    -0.78900
O112        O  0.01779518  0.32477808  0.79122211    -0.77600
Zn113      Zn  0.07717612  0.43606456  0.80325353     1.55700
O114        O  0.49891067  0.45829706  0.90569819    -0.79000
Cd115      Cd  0.02107489  0.36579871  0.86109668     1.59700
Cd116      Cd  0.13601533  0.37999873  0.88808024     1.59600
O117        O  0.02609701  0.32826124  0.92816449    -0.79000
O118        O  0.07989741  0.40770056  0.86667229    -1.89500
Cd119      Cd  0.06878151  0.45694919  0.92012742     1.59900
O120        O  0.10212589  0.31988371  0.93694249    -0.78900
O121        O  0.08775036  0.02726751  0.90594607    -0.77600
C122        C  0.17864004  0.43033216  0.78226720     0.85000
C123        C  0.02078197  0.34760670  0.74628900     0.84600
O124        O  0.05729410  0.49971850  0.82583712    -0.76500
C125        C  0.46153184  0.43893168  0.88290570     0.85400
O126        O  0.13942367  0.44403235  0.78067414    -0.76600
C127        C  0.05875756  0.31099961  0.95248333     0.85600
C128        C  0.14615171  0.44163663  0.99305801     0.85900
O129        O  0.16768927  0.42349068  0.95240970    -0.79000
C130        C  0.36792740  0.44991250  0.80036168     0.82200
N131        N  0.32152029  0.43802526  0.81025924    -0.76100
C132        C  0.29147640  0.42542065  0.76750459     0.84600
N133        N  0.31051691  0.41054226  0.71883815    -0.76100
C134        C  0.35334178  0.43065697  0.70244042     0.84700
N135        N  0.38289387  0.45196731  0.74424336    -0.77800
O136        O  0.02586645  0.02103185  0.74245699    -0.76500
C137        C  0.02096471  0.38988571  0.63101533     0.84500
O138        O  0.16293959  0.03544278  0.64719911    -0.77700
O139        O  0.06233110  0.46103799  0.48983621    -0.79100
O140        O  0.44842235  0.01810419  0.63435485    -0.78900
O141        O  0.01766856  0.09035527  0.71141503    -0.77600
Zn142      Zn  0.05441200  0.48438729  0.67921338     1.55700
O143        O  0.46280935  0.45467889  0.58283513    -0.79000
Cd144      Cd  0.01099312  0.05930566  0.63128890     1.59700
Cd145      Cd  0.11354344  0.04574692  0.58310453     1.59600
O146        O  0.01898573  0.10804065  0.56946776    -0.79000
O147        O  0.05619833  0.01608535  0.61374096    -1.89500
Cd148      Cd  0.03275785  0.46156354  0.56678668     1.59900
O149        O  0.09580614  0.11175034  0.55269459    -0.78900
O150        O  0.04794255  0.39851811  0.58992414    -0.77600
C151        C  0.16094600  0.00291032  0.68405875     0.85000
C152        C  0.01868537  0.06313117  0.75255403     0.84600
O153        O  0.01258277  0.42312070  0.66490437    -0.76500
C154        C  0.43568221  0.97772858  0.61230486     0.85400
O155        O  0.12236405  0.97831959  0.69473960    -0.76600
C156        C  0.05596336  0.12668231  0.54540457     0.85600
C157        C  0.10406075  0.47678440  0.47811951     0.85900
O158        O  0.12904425  0.00567378  0.51092323    -0.79000
N159        N  0.00053091  0.34347539  0.64157215    -0.01500
C160        C  0.97817483  0.31024122  0.60548042     0.01100
C161        C  0.96285639  0.27099182  0.63656942    -0.21800
C162        C  0.97666399  0.28003318  0.69170803    -0.22000
C163        C  0.99983567  0.32470875  0.69369969     0.01000
H164        H  0.94473520  0.23817304  0.62051621     0.14700
H165        H  0.97080502  0.25627969  0.72638160     0.14800
N166        N  0.38776678  0.46404398  0.60526114    -0.01500
C167        C  0.35401048  0.44328870  0.64008702     0.01100
C168        C  0.31283649  0.43691544  0.60870637    -0.21800
C169        C  0.32170498  0.45438435  0.55575251    -0.22000
C170        C  0.36817558  0.47079200  0.55462983     0.01000
H171        H  0.27884609  0.42193692  0.62297983     0.14700
H172        H  0.29687809  0.45469588  0.52175512     0.14800
N173        N  0.21401211  0.45792870  0.74909019    -0.01500
C174        C  0.26123355  0.46193513  0.75410503     0.01100
C175        C  0.28110926  0.50094810  0.72568993    -0.21800
C176        C  0.24667152  0.51941921  0.69865179    -0.22000
C177        C  0.20560177  0.49297160  0.71230674     0.01000
H178        H  0.31775418  0.51273644  0.72100330     0.14700
H179        H  0.25145349  0.04859679  0.67036505     0.14800
N180        N  0.01365320  0.17620934  0.47919730    -0.01500
C181        C  0.01949901  0.22248675  0.46733222     0.01100
C182        C  0.06207162  0.24271666  0.48898538    -0.21800
C183        C  0.08191162  0.20908038  0.51677542    -0.22000
C184        C  0.05151195  0.16881583  0.51124619     0.01000
H185        H  0.07422528  0.27976341  0.49187792     0.14700
H186        H  0.11296900  0.21452034  0.54246600     0.14800
N187        N  0.04253339  0.27957518  0.99681167    -0.01500
C188        C  0.03656065  0.23223004  0.98915724     0.01100
C189        C  0.99613362  0.21346527  0.01637044    -0.21800
C190        C  0.97841566  0.24895181  0.04490476    -0.22000
C191        C  0.00648932  0.28912323  0.03189754     0.01000
H192        H  0.98314160  0.17680519  0.01987597     0.14700
H193        H  0.44799481  0.24573453  0.07202491     0.14800
N194        N  0.31952254  0.49268281  0.25110317    -0.01500
C195        C  0.27286751  0.48526133  0.25851560     0.01100
C196        C  0.25533397  0.44196353  0.23420848    -0.21800
C197        C  0.29147802  0.42239409  0.21012269    -0.22000
C198        C  0.33012756  0.45352184  0.22146028     0.01000
H199        H  0.21919125  0.42799225  0.22948200     0.14700
H200        H  0.28953019  0.39001281  0.18511690     0.14800
C201        C  0.16376639  0.49677378  0.28634495     0.82200
N202        N  0.15425902  0.99016555  0.22892036    -0.76100
C203        C  0.18648454  0.00948855  0.18994069     0.84600
N204        N  0.22793779  0.03067058  0.20964157    -0.76100
C205        C  0.24169763  0.52227738  0.26246041     0.84700
N206        N  0.20796645  0.51382673  0.30172789    -0.77800
N207        N  0.15327641  0.97634766  0.09274714    -0.01500
C208        C  0.18808773  0.99434018  0.12801128     0.01100
C209        C  0.22981020  0.99453591  0.09820219    -0.21800
C210        C  0.21982678  0.97531691  0.04468028    -0.22000
C211        C  0.17232229  0.96422748  0.04257093     0.01000
H212        H  0.26433964  0.00604245  0.11412012     0.14700
H213        H  0.24461986  0.96972544  0.01135825     0.14800
N214        N  0.02752322  0.60999370  0.14450819    -0.01500
C215        C  0.04594816  0.64505113  0.11127419     0.01100
C216        C  0.04315764  0.68688111  0.14216411    -0.21800
C217        C  0.02121008  0.67628438  0.19337200    -0.22000
C218        C  0.01138653  0.62823616  0.19351560     0.01000
H219        H  0.05412966  0.72193615  0.12819217     0.14700
H220        H  0.01273166  0.70107619  0.22616733     0.14800
O221        O  0.47267786  0.96527762  0.99990020    -0.76500
C222        C  0.10543764  0.96813224  0.10535267     0.84500
O223        O  0.46500195  0.83573562  0.09416191    -0.77700
O224        O  0.03300053  0.93980668  0.25090781    -0.79100
O225        O  0.48360924  0.54689682  0.10672935    -0.78900
O226        O  0.40758513  0.98088110  0.04010866    -0.77600
Zn227      Zn  0.01390808  0.94065799  0.05841628     1.55700
O228        O  0.04268310  0.53614652  0.16330469    -0.79000
Cd229      Cd  0.44286371  0.98661143  0.11469542     1.59700
Cd230      Cd  0.45355868  0.88573916  0.15820234     1.59600
O231        O  0.40014623  0.98492270  0.18213596    -0.79000
O232        O  0.48377023  0.94058582  0.12624505    -1.89500
Cd233      Cd  0.03433405  0.96574443  0.17405991     1.59900
O234        O  0.38761811  0.90645022  0.18447781    -0.78900
O235        O  0.09237613  0.94405862  0.14700818    -0.77600
C236        C  0.49682190  0.83533141  0.05565120     0.85000
C237        C  0.43191151  0.97704555  0.99576774     0.84600
O238        O  0.07567935  0.98211028  0.07239420    -0.76500
C239        C  0.52033219  0.56186619  0.13323911     0.85400
O240        O  0.52134175  0.87270676  0.04005122    -0.76600
C241        C  0.37584404  0.94756442  0.19676489     0.85600
C242        C  0.01856227  0.89795050  0.26246242     0.85900
O243        O  0.49105811  0.87130163  0.22996336    -0.79000
C244        C  0.05043230  0.62370260  0.95143383     0.82200
N245        N  0.04394703  0.61234208  0.00805477    -0.76100
C246        C  0.06286844  0.64386763  0.05005357     0.84600
N247        N  0.08393781  0.68613644  0.03363754    -0.76100
C248        C  0.07418316  0.70182790  0.98218003     0.84700
N249        N  0.06580091  0.66911453  0.94002075    -0.77800
N250        N  0.11046610  0.98279514  0.37295249    -0.01500
C251        C  0.13954689  0.96764372  0.33185433     0.01100
C252        C  0.16639928  0.93680327  0.35687126    -0.21800
C253        C  0.15676852  0.93624567  0.41389234    -0.22000
C254        C  0.12252953  0.96460415  0.42228102     0.01000
H255        H  0.19526643  0.92173731  0.33724035     0.14700
H256        H  0.17399176  0.91848434  0.44585162     0.14800
N257        N  0.99772628  0.88771035  0.36322992    -0.01500
C258        C  0.01639163  0.86740690  0.40834771     0.01100
C259        C  0.05945660  0.85469146  0.39151478    -0.21800
C260        C  0.06555597  0.86347258  0.33503463    -0.22000
C261        C  0.02719762  0.88319192  0.31928898     0.01000
H262        H  0.08130226  0.83475391  0.41572940     0.14700
H263        H  0.09410141  0.85523855  0.30824426     0.14800
O264        O  0.43737212  0.49891402  0.49951545    -0.76500
C265        C  0.06901168  0.50588521  0.36792823     0.84500
O266        O  0.45040503  0.64467242  0.41675268    -0.77700
O267        O  0.98141080  0.55536067  0.23790447    -0.79100
O268        O  0.43986276  0.92966786  0.40439185    -0.78900
O269        O  0.36847688  0.99868143  0.46138277    -0.77600
Zn270      Zn  0.48161086  0.53393374  0.43783092     1.55700
O271        O  0.45515389  0.93961003  0.31435472    -0.79000
Cd272      Cd  0.40532491  0.98773619  0.39190946     1.59700
Cd273      Cd  0.42668702  0.59408957  0.34713772     1.58000
O274        O  0.36535372  0.48321523  0.32589314    -0.79000
O275        O  0.45200678  0.53850625  0.37162976    -1.89500
Cd276      Cd  0.98340240  0.51127794  0.30733085     1.59900
O277        O  0.36428763  0.55813403  0.30138234    -0.78900
O278        O  0.05379938  0.51293505  0.31937632    -0.77600
C279        C  0.48217623  0.63837995  0.45339518     0.85000
C280        C  0.39274968  0.49138092  0.50353348     0.84600
O281        O  0.04372528  0.51147980  0.41209099    -0.76500
C282        C  0.46065909  0.91750247  0.36010849     0.85400
O283        O  0.49349391  0.59799077  0.46103439    -0.76600
C284        C  0.35096261  0.51336843  0.29459399     0.85600
C285        C  0.48601195  0.60037326  0.24006704     0.85900
O286        O  0.46977789  0.62215642  0.28212358    -0.79000
C287        C  0.49036062  0.83460009  0.44837393     0.82200
N288        N  0.48766756  0.84428980  0.50596644    -0.76100
C289        C  0.47491037  0.80799263  0.54174828     0.84600
N290        N  0.46917915  0.76350048  0.51973779    -0.76100
C291        C  0.48215588  0.75314394  0.46636023     0.84700
N292        N  0.48876838  0.78884678  0.43015591    -0.77800
N293        N  0.03584294  0.57142751  0.85981503    -0.01500
C294        C  0.02195840  0.60019177  0.90298197     0.01100
C295        C  0.98774035  0.62483529  0.88190101    -0.21800
C296        C  0.98221957  0.61345274  0.82521471    -0.22000
C297        C  0.01178782  0.58071872  0.81228718     0.01000
H298        H  0.97239303  0.65277497  0.90394792     0.14700
H299        H  0.96017190  0.62880814  0.79606778     0.14800
N300        N  0.42148954  0.96395297  0.88890661    -0.01500
C301        C  0.39135031  0.97770861  0.84961376     0.01100
C302        C  0.36601768  0.01037098  0.87632137    -0.21800
C303        C  0.37826001  0.01447757  0.93246645    -0.22000
C304        C  0.41220429  0.98577469  0.93927071     0.01000
H305        H  0.33727639  0.02552527  0.85822403     0.14700
H306        H  0.36281527  0.03493942  0.96514452     0.14800
O307        O  0.03997223  0.89009635  0.74735282    -0.76500
C308        C  0.06400002  0.53321378  0.86272927     0.84500
O309        O  0.18593388  0.89807297  0.81704272    -0.77700
O310        O  0.10233146  0.94156508  0.99109077    -0.79100
O311        O  0.46041650  0.89896182  0.85867283    -0.78900
O312        O  0.01782229  0.82480454  0.79120752    -0.77600
Zn313      Zn  0.07717345  0.93610368  0.80322997     1.55700
O314        O  0.49890791  0.95832769  0.90567527    -0.79000
Cd315      Cd  0.02110065  0.86582417  0.86107959     1.59700
Cd316      Cd  0.13603909  0.88005513  0.88804191     1.59600
O317        O  0.02613344  0.82828035  0.92813883    -0.79000
O318        O  0.07991220  0.90774035  0.86664370    -1.89500
Cd319      Cd  0.06878665  0.95699761  0.92008118     1.59900
O320        O  0.10216907  0.81992619  0.93689762    -0.78900
O321        O  0.08775417  0.52721862  0.90600188    -0.77600
C322        C  0.17864326  0.93039031  0.78221221     0.85000
C323        C  0.02078038  0.84764177  0.74628157     0.84600
O324        O  0.05724789  0.99973632  0.82581813    -0.76500
C325        C  0.46153448  0.93894253  0.88288667     0.85400
O326        O  0.13942854  0.94410206  0.78062556    -0.76600
C327        C  0.05880350  0.81102249  0.95244313     0.85600
C328        C  0.14617087  0.94171730  0.99300152     0.85900
O329        O  0.16771080  0.92356421  0.95236025    -0.79000
C330        C  0.36792127  0.94993678  0.80034646     0.82200
N331        N  0.32150970  0.93806351  0.81022690    -0.76100
C332        C  0.29147612  0.92545503  0.76746409     0.84600
N333        N  0.31052709  0.91056200  0.71881226    -0.76100
C334        C  0.35335626  0.93067077  0.70242215     0.84700
N335        N  0.38290298  0.95198249  0.74423190    -0.77800
O336        O  0.02574725  0.52093833  0.74252968    -0.76500
C337        C  0.02097137  0.88991336  0.63100238     0.84500
O338        O  0.16292233  0.53541150  0.64728327    -0.77700
O339        O  0.06233654  0.96101924  0.48978382    -0.79100
O340        O  0.44840958  0.51807921  0.63441811    -0.78900
O341        O  0.01769986  0.59030323  0.71149427    -0.77600
Zn342      Zn  0.05445494  0.98442655  0.67914277     1.55700
O343        O  0.46282711  0.95468924  0.58280498    -0.79000
Cd344      Cd  0.01098410  0.55927562  0.63136202     1.59700
Cd345      Cd  0.11352907  0.54573386  0.58319366     1.59600
O346        O  0.01897079  0.60801797  0.56954729    -0.79000
O347        O  0.05618187  0.51605905  0.61381298    -1.89500
Cd348      Cd  0.03277273  0.96157018  0.56674118     1.59900
O349        O  0.09579398  0.61174285  0.55279539    -0.78900
O350        O  0.04794825  0.89852597  0.58990500    -0.77600
C351        C  0.16092280  0.50288403  0.68414997     0.85000
C352        C  0.01865020  0.56306259  0.75262794     0.84600
O353        O  0.01260560  0.92316286  0.66488044    -0.76500
C354        C  0.43566505  0.47771359  0.61234246     0.85400
O355        O  0.12233305  0.47830753  0.69484213    -0.76600
C356        C  0.05594976  0.62666928  0.54549634     0.85600
C357        C  0.10406398  0.97676528  0.47805473     0.85900
O358        O  0.12903943  0.50568066  0.51100325    -0.79000
N359        N  0.00051340  0.84351167  0.64157185    -0.01500
C360        C  0.97813632  0.81028036  0.60549232     0.01100
C361        C  0.96279483  0.77104488  0.63659426    -0.21800
C362        C  0.97661324  0.78008759  0.69172733    -0.22000
C363        C  0.99981187  0.82475138  0.69370313     0.01000
H364        H  0.94465442  0.73823162  0.62055187     0.14700
H365        H  0.97074415  0.75634227  0.72640783     0.14800
N366        N  0.38778503  0.96404885  0.60523210    -0.01500
C367        C  0.35403200  0.94329020  0.64006155     0.01100
C368        C  0.31286086  0.93689746  0.60867423    -0.21800
C369        C  0.32172663  0.95435861  0.55571689    -0.22000
C370        C  0.36819308  0.97078108  0.55459629     0.01000
H371        H  0.27887258  0.92191024  0.62294477     0.14700
H372        H  0.29690071  0.95465451  0.52171541     0.14800
N373        N  0.21402053  0.95797163  0.74902408    -0.01500
C374        C  0.26124171  0.96197006  0.75403871     0.01100
C375        C  0.28112556  0.00097053  0.72560601    -0.21800
C376        C  0.24669317  0.01943993  0.69855609    -0.22000
C377        C  0.20562015  0.99300374  0.71222174     0.01000
H378        H  0.31777195  0.01275128  0.72091779     0.14700
H379        H  0.25142652  0.54858622  0.67047580     0.14800
N380        N  0.01364803  0.67620308  0.47928414    -0.01500
C381        C  0.01949144  0.72248268  0.46743252     0.01100
C382        C  0.06205316  0.74271659  0.48911075    -0.21800
C383        C  0.08189075  0.70907777  0.51689960    -0.22000
C384        C  0.05149907  0.66880875  0.51134687     0.01000
H385        H  0.07420187  0.77976439  0.49201050     0.14700
H386        H  0.11294094  0.71451739  0.54260291     0.14800
N387        N  0.04259584  0.77957170  0.99675306    -0.01500
C388        C  0.03659185  0.73223428  0.98900636     0.01100
C389        C  0.99613426  0.71346322  0.01615355    -0.21800
C390        C  0.97843295  0.74892865  0.04475037    -0.22000
C391        C  0.00654290  0.78910005  0.03183646     0.01000
H392        H  0.98312510  0.67680197  0.01960329     0.14700
H393        H  0.44799709  0.74569883  0.07184523     0.14800
N394        N  0.31953601  0.99261302  0.25106178    -0.01500
C395        C  0.27287502  0.98521084  0.25842278     0.01100
C396        C  0.25533757  0.94193149  0.23407179    -0.21800
C397        C  0.29148950  0.92234897  0.21002283    -0.22000
C398        C  0.33014495  0.95345389  0.22141900     0.01000
H399        H  0.21919318  0.92797823  0.22930705     0.14700
H400        H  0.28954467  0.88997618  0.18500041     0.14800
C401        C  0.66377772  0.99675042  0.28629398     0.82200
N402        N  0.65425407  0.49014099  0.22897459    -0.76100
C403        C  0.68647167  0.50945260  0.18997849     0.84600
N404        N  0.72791764  0.53066556  0.20966384    -0.76100
C405        C  0.74171741  0.02223467  0.26242258     0.84700
N406        N  0.70798679  0.01376193  0.30168603    -0.77800
N407        N  0.65326536  0.47629065  0.09279499    -0.01500
C408        C  0.68808087  0.49426044  0.12806472     0.01100
C409        C  0.72980646  0.49440388  0.09827447    -0.21800
C410        C  0.71981877  0.47517643  0.04475702    -0.22000
C411        C  0.67230899  0.46413337  0.04263208     0.01000
H412        H  0.76433818  0.50588555  0.11420109     0.14700
H413        H  0.74461213  0.46955086  0.01144734     0.14800
N414        N  0.52753750  0.10993825  0.14448357    -0.01500
C415        C  0.54596811  0.14499542  0.11125127     0.01100
C416        C  0.54318163  0.18682519  0.14214540    -0.21800
C417        C  0.52122547  0.17623086  0.19334673    -0.22000
C418        C  0.51139567  0.12818403  0.19348629     0.01000
H419        H  0.55416029  0.22188059  0.12817929     0.14700
H420        H  0.51274542  0.20102355  0.22614023     0.14800
O421        O  0.97269465  0.46535306  0.99990771    -0.76500
C422        C  0.60542218  0.46813185  0.10538979     0.84500
O423        O  0.96494077  0.33579066  0.09417103    -0.77700
O424        O  0.53294488  0.43986442  0.25092684    -0.79100
O425        O  0.98362880  0.04683435  0.10671255    -0.78900
O426        O  0.90758369  0.48093373  0.04009033    -0.77600
Zn427      Zn  0.51389689  0.44070240  0.05842599     1.55700
O428        O  0.54269889  0.03609318  0.16329723    -0.79000
Cd429      Cd  0.94284146  0.48667329  0.11469087     1.59700
Cd430      Cd  0.95352377  0.38580462  0.15820531     1.59600
O431        O  0.90010794  0.48499255  0.18211892    -0.79000
O432        O  0.98374548  0.44064696  0.12624857    -1.89500
Cd433      Cd  0.53429547  0.46580324  0.17408095     1.59900
O434        O  0.88759257  0.40652150  0.18449766    -0.78900
O435        O  0.59233249  0.44409487  0.14706464    -0.77600
C436        C  0.99676470  0.33536854  0.05566846     0.85000
C437        C  0.93192516  0.47710869  0.99575999     0.84600
O438        O  0.57568764  0.48212093  0.07240702    -0.76500
C439        C  0.02034935  0.06180898  0.13322311     0.85400
O440        O  0.02129554  0.37273579  0.04006084    -0.76600
C441        C  0.87581660  0.44763613  0.19677454     0.85600
C442        C  0.51852185  0.39800140  0.26246664     0.85900
O443        O  0.99102704  0.37135202  0.22995731    -0.79000
C444        C  0.55039270  0.12372928  0.95139865     0.82200
N445        N  0.54393826  0.11232431  0.00801064    -0.76100
C446        C  0.56288528  0.14382107  0.05002641     0.84600
N447        N  0.58395915  0.18609517  0.03363298    -0.76100
C448        C  0.57415185  0.20183419  0.98221889     0.84700
N449        N  0.56573542  0.16915610  0.94002796    -0.77800
N450        N  0.61046370  0.48280536  0.37301438    -0.01500
C451        C  0.63956376  0.46767134  0.33192717     0.01100
C452        C  0.66643998  0.43685888  0.35695648    -0.21800
C453        C  0.65680089  0.43630000  0.41397451    -0.22000
C454        C  0.62253590  0.46462956  0.42234931     0.01000
H455        H  0.69532356  0.42181423  0.33733678     0.14700
H456        H  0.67403714  0.41855996  0.44594219     0.14800
N457        N  0.49769772  0.38774169  0.36323626    -0.01500
C458        C  0.51637689  0.36744727  0.40835191     0.01100
C459        C  0.55944701  0.35475045  0.39150955    -0.21800
C460        C  0.56553507  0.36353158  0.33502734    -0.22000
C461        C  0.52716425  0.38323308  0.31928811     0.01000
H462        H  0.58130679  0.33482549  0.41572022     0.14700
H463        H  0.59408394  0.35531321  0.30823303     0.14800
O464        O  0.93738544  0.99891622  0.49948016    -0.76500
C465        C  0.56901828  0.00588286  0.36787494     0.84500
O466        O  0.95039744  0.14466389  0.41668745    -0.77700
O467        O  0.48139206  0.05531425  0.23786395    -0.79100
O468        O  0.93983747  0.42969224  0.40441786    -0.78900
O469        O  0.86846654  0.49871530  0.46142515    -0.77600
Zn470      Zn  0.98162049  0.03393081  0.43778829     1.55700
O471        O  0.95511974  0.43964903  0.31438235    -0.79000
Cd472      Cd  0.90531238  0.48777078  0.39194583     1.59700
Cd473      Cd  0.92667851  0.09405721  0.34709223     1.58000
O474        O  0.86536660  0.98316917  0.32585706    -0.79000
O475        O  0.95200591  0.03848034  0.37159324    -1.89500
Cd476      Cd  0.48340097  0.01124784  0.30729671     1.59900
O477        O  0.86428545  0.05808288  0.30133167    -0.78900
O478        O  0.55379943  0.01292863  0.31932524    -0.77600
C479        C  0.98217644  0.13838109  0.45332374     0.85000
C480        C  0.89276332  0.99136689  0.50349582     0.84600
O481        O  0.54373702  0.01147994  0.41204244    -0.76500
C482        C  0.96062918  0.41753302  0.36012839     0.85400
O483        O  0.99349725  0.09799404  0.46096806    -0.76600
C484        C  0.85096834  0.01331435  0.29455247     0.85600
C485        C  0.98600872  0.10032661  0.24003047     0.85900
O486        O  0.96977820  0.12211424  0.28208519    -0.79000
C487        C  0.99035997  0.33462031  0.44836972     0.82200
N488        N  0.98768011  0.34428704  0.50596916    -0.76100
C489        C  0.97493951  0.30797439  0.54173543     0.84600
N490        N  0.96921063  0.26348995  0.51970107    -0.76100
C491        C  0.98216779  0.25315548  0.46630866     0.84700
N492        N  0.98876792  0.28887377  0.43012432    -0.77800
N493        N  0.53582914  0.07146837  0.85976161    -0.01500
C494        C  0.52193294  0.10022851  0.90292653     0.01100
C495        C  0.48773117  0.12488419  0.88182794    -0.21800
C496        C  0.48223683  0.11351671  0.82513453    -0.22000
C497        C  0.51180342  0.08077826  0.81221690     0.01000
H498        H  0.47237996  0.15282300  0.90387254     0.14700
H499        H  0.46020726  0.12888502  0.79597751     0.14800
N500        N  0.92150339  0.46397028  0.88890791    -0.01500
C501        C  0.89135740  0.47770466  0.84960972     0.01100
C502        C  0.86603233  0.51038529  0.87629060    -0.21800
C503        C  0.87828620  0.51452663  0.93243049    -0.22000
C504        C  0.91222818  0.48582422  0.93925472     0.01000
H505        H  0.83728844  0.52552895  0.85818350     0.14700
H506        H  0.86284614  0.53500583  0.96509488     0.14800
O507        O  0.53998566  0.39005792  0.74735968    -0.76500
C508        C  0.56397250  0.03324549  0.86268887     0.84500
O509        O  0.68593305  0.39801837  0.81710080    -0.77700
O510        O  0.60231252  0.44149116  0.99114630    -0.79100
O511        O  0.96039889  0.39895207  0.85868607    -0.78900
O512        O  0.51779520  0.32477807  0.79122211    -0.77600
Zn513      Zn  0.57717614  0.43606456  0.80325354     1.55700
O514        O  0.99891056  0.45829705  0.90569816    -0.79000
Cd515      Cd  0.52107497  0.36579870  0.86109669     1.59700
Cd516      Cd  0.63601549  0.37999872  0.88808026     1.59600
O517        O  0.52609704  0.32826121  0.92816451    -0.79000
O518        O  0.57989752  0.40770053  0.86667230    -1.89500
Cd519      Cd  0.56878158  0.45694919  0.92012741     1.59900
O520        O  0.60212595  0.31988373  0.93694247    -0.78900
O521        O  0.58775038  0.02726751  0.90594608    -0.77600
C522        C  0.67864007  0.43033215  0.78226720     0.85000
C523        C  0.52078198  0.34760670  0.74628900     0.84600
O524        O  0.55729411  0.49971850  0.82583711    -0.76500
C525        C  0.96153171  0.43893167  0.88290569     0.85400
O526        O  0.63942369  0.44403233  0.78067417    -0.76600
C527        C  0.55875763  0.31099962  0.95248333     0.85600
C528        C  0.64615175  0.44163662  0.99305802     0.85900
O529        O  0.66768933  0.42349071  0.95240974    -0.79000
C530        C  0.86792735  0.44991250  0.80036168     0.82200
N531        N  0.82152025  0.43802525  0.81025921    -0.76100
C532        C  0.79147639  0.42542065  0.76750454     0.84600
N533        N  0.81051694  0.41054225  0.71883812    -0.76100
C534        C  0.85334180  0.43065697  0.70244043     0.84700
N535        N  0.88289387  0.45196732  0.74424338    -0.77800
O536        O  0.52586637  0.02103175  0.74245700    -0.76500
C537        C  0.52096471  0.38988570  0.63101534     0.84500
O538        O  0.66293956  0.03544276  0.64719910    -0.77700
O539        O  0.56233112  0.46103799  0.48983621    -0.79100
O540        O  0.94842235  0.01810418  0.63435483    -0.78900
O541        O  0.51766860  0.09035519  0.71141504    -0.77600
Zn542      Zn  0.55441186  0.48438729  0.67921338     1.55700
O543        O  0.96280935  0.45467889  0.58283513    -0.79000
Cd544      Cd  0.51099310  0.05930567  0.63128890     1.59700
Cd545      Cd  0.61354341  0.04574691  0.58310454     1.59600
O546        O  0.51898573  0.10804065  0.56946774    -0.79000
O547        O  0.55619825  0.01608535  0.61374094    -1.89500
Cd548      Cd  0.53275786  0.46156354  0.56678668     1.59900
O549        O  0.59580615  0.11175034  0.55269459    -0.78900
O550        O  0.54794256  0.39851812  0.58992415    -0.77600
C551        C  0.66094595  0.00291032  0.68405876     0.85000
C552        C  0.51868536  0.06313109  0.75255404     0.84600
O553        O  0.51258272  0.42312068  0.66490436    -0.76500
C554        C  0.93568222  0.97772857  0.61230481     0.85400
O555        O  0.62236399  0.97831963  0.69473963    -0.76600
C556        C  0.55596336  0.12668230  0.54540455     0.85600
C557        C  0.60406077  0.47678440  0.47811951     0.85900
O558        O  0.62904425  0.00567377  0.51092321    -0.79000
N559        N  0.50053092  0.34347538  0.64157214    -0.01500
C560        C  0.47817482  0.31024122  0.60548042     0.01100
C561        C  0.46285638  0.27099182  0.63656943    -0.21800
C562        C  0.47666398  0.28003318  0.69170804    -0.22000
C563        C  0.49983567  0.32470875  0.69369969     0.01000
H564        H  0.44473518  0.23817305  0.62051621     0.14700
H565        H  0.47080501  0.25627970  0.72638160     0.14800
N566        N  0.88776679  0.46404398  0.60526115    -0.01500
C567        C  0.85401051  0.44328870  0.64008702     0.01100
C568        C  0.81283651  0.43691540  0.60870635    -0.21800
C569        C  0.82170501  0.45438434  0.55575251    -0.22000
C570        C  0.86817558  0.47079201  0.55462983     0.01000
H571        H  0.77884615  0.42193682  0.62297976     0.14700
H572        H  0.79687809  0.45469581  0.52175508     0.14800
N573        N  0.71401210  0.45792864  0.74909017    -0.01500
C574        C  0.76123356  0.46193512  0.75410494     0.01100
C575        C  0.78110918  0.50094805  0.72568974    -0.21800
C576        C  0.74667141  0.51941915  0.69865172    -0.22000
C577        C  0.70560170  0.49297152  0.71230669     0.01000
H578        H  0.81775417  0.51273645  0.72100298     0.14700
H579        H  0.75145347  0.04859682  0.67036509     0.14800
N580        N  0.51365320  0.17620933  0.47919726    -0.01500
C581        C  0.51949901  0.22248674  0.46733223     0.01100
C582        C  0.56207162  0.24271665  0.48898539    -0.21800
C583        C  0.58191162  0.20908037  0.51677541    -0.22000
C584        C  0.55151194  0.16881582  0.51124616     0.01000
H585        H  0.57422529  0.27976340  0.49187792     0.14700
H586        H  0.61296901  0.21452033  0.54246599     0.14800
N587        N  0.54253348  0.27957519  0.99681168    -0.01500
C588        C  0.53656067  0.23223007  0.98915711     0.01100
C589        C  0.49613359  0.21346530  0.01637020    -0.21800
C590        C  0.47841569  0.24895181  0.04490464    -0.22000
C591        C  0.50648940  0.28912322  0.03189752     0.01000
H592        H  0.48314153  0.17680522  0.01987565     0.14700
H593        H  0.94799477  0.24573456  0.07202501     0.14800
N594        N  0.81952254  0.49268283  0.25110321    -0.01500
C595        C  0.77286752  0.48526133  0.25851561     0.01100
C596        C  0.75533398  0.44196353  0.23420848    -0.21800
C597        C  0.79147802  0.42239411  0.21012269    -0.22000
C598        C  0.83012754  0.45352184  0.22146032     0.01000
H599        H  0.71919126  0.42799226  0.22948198     0.14700
H600        H  0.78953020  0.39001281  0.18511680     0.14800
C601        C  0.66376640  0.49677379  0.28634496     0.82200
N602        N  0.65425903  0.99016555  0.22892036    -0.76100
C603        C  0.68648456  0.00948855  0.18994069     0.84600
N604        N  0.72793780  0.03067057  0.20964157    -0.76100
C605        C  0.74169765  0.52227738  0.26246042     0.84700
N606        N  0.70796646  0.51382673  0.30172790    -0.77800
N607        N  0.65327642  0.97634764  0.09274717    -0.01500
C608        C  0.68808775  0.99434017  0.12801129     0.01100
C609        C  0.72981021  0.99453591  0.09820219    -0.21800
C610        C  0.71982679  0.97531692  0.04468028    -0.22000
C611        C  0.67232230  0.96422748  0.04257095     0.01000
H612        H  0.76433965  0.00604245  0.11412011     0.14700
H613        H  0.74461986  0.96972544  0.01135825     0.14800
N614        N  0.52752320  0.60999367  0.14450817    -0.01500
C615        C  0.54594817  0.64505112  0.11127419     0.01100
C616        C  0.54315765  0.68688110  0.14216412    -0.21800
C617        C  0.52121009  0.67628435  0.19337201    -0.22000
C618        C  0.51138652  0.62823613  0.19351560     0.01000
H619        H  0.55412966  0.72193615  0.12819219     0.14700
H620        H  0.51273166  0.70107616  0.22616734     0.14800
O621        O  0.97267787  0.96527762  0.99990019    -0.76500
C622        C  0.60543766  0.96813222  0.10535275     0.84500
O623        O  0.96500195  0.83573562  0.09416192    -0.77700
O624        O  0.53300053  0.93980668  0.25090782    -0.79100
O625        O  0.98360927  0.54689691  0.10672931    -0.78900
O626        O  0.90758515  0.98088110  0.04010866    -0.77600
Zn627      Zn  0.51390809  0.94065798  0.05841628     1.55700
O628        O  0.54268312  0.53614651  0.16330467    -0.79000
Cd629      Cd  0.94286372  0.98661143  0.11469542     1.59700
Cd630      Cd  0.95355868  0.88573916  0.15820234     1.59600
O631        O  0.90014623  0.98492271  0.18213597    -0.79000
O632        O  0.98377023  0.94058582  0.12624505    -1.89500
Cd633      Cd  0.53433405  0.96574445  0.17405994     1.59900
O634        O  0.88761810  0.90645024  0.18447782    -0.78900
O635        O  0.59237618  0.94405871  0.14700834    -0.77600
C636        C  0.99682190  0.83533141  0.05565121     0.85000
C637        C  0.93191151  0.97704556  0.99576774     0.84600
O638        O  0.57567936  0.98211022  0.07239426    -0.76500
C639        C  0.02033220  0.56186622  0.13323912     0.85400
O640        O  0.02134174  0.87270676  0.04005121    -0.76600
C641        C  0.87584403  0.94756445  0.19676489     0.85600
C642        C  0.51856227  0.89795050  0.26246242     0.85900
O643        O  0.99105811  0.87130162  0.22996336    -0.79000
C644        C  0.55043229  0.62370260  0.95143383     0.82200
N645        N  0.54394704  0.61234208  0.00805477    -0.76100
C646        C  0.56286845  0.64386763  0.05005357     0.84600
N647        N  0.58393782  0.68613644  0.03363754    -0.76100
C648        C  0.57418317  0.70182790  0.98218003     0.84700
N649        N  0.56580092  0.66911452  0.94002075    -0.77800
N650        N  0.61046604  0.98279514  0.37295249    -0.01500
C651        C  0.63954687  0.96764374  0.33185435     0.01100
C652        C  0.66639926  0.93680329  0.35687128    -0.21800
C653        C  0.65676847  0.93624567  0.41389234    -0.22000
C654        C  0.62252948  0.96460412  0.42228101     0.01000
H655        H  0.69526644  0.92173735  0.33724040     0.14700
H656        H  0.67399172  0.91848437  0.44585167     0.14800
N657        N  0.49772628  0.88771035  0.36322992    -0.01500
C658        C  0.51639163  0.86740689  0.40834771     0.01100
C659        C  0.55945660  0.85469146  0.39151478    -0.21800
C660        C  0.56555597  0.86347258  0.33503463    -0.22000
C661        C  0.52719762  0.88319192  0.31928898     0.01000
H662        H  0.58130226  0.83475391  0.41572940     0.14700
H663        H  0.59410142  0.85523855  0.30824427     0.14800
O664        O  0.93737214  0.49891403  0.49951545    -0.76500
C665        C  0.56901169  0.50588522  0.36792823     0.84500
O666        O  0.95040512  0.64467247  0.41675271    -0.77700
O667        O  0.48141078  0.55536060  0.23790444    -0.79100
O668        O  0.93986276  0.92966786  0.40439185    -0.78900
O669        O  0.86847689  0.99868144  0.46138273    -0.77600
Zn670      Zn  0.98161086  0.53393375  0.43783091     1.55700
O671        O  0.95515390  0.93961004  0.31435472    -0.79000
Cd672      Cd  0.90532492  0.98773620  0.39190945     1.59700
Cd673      Cd  0.92668704  0.59408973  0.34713771     1.58000
O674        O  0.86535374  0.48321524  0.32589315    -0.79000
O675        O  0.95200677  0.53850633  0.37162974    -1.89500
Cd676      Cd  0.48340240  0.51127791  0.30733086     1.59900
O677        O  0.86428766  0.55813406  0.30138235    -0.78900
O678        O  0.55379939  0.51293505  0.31937632    -0.77600
C679        C  0.98217631  0.63837997  0.45339516     0.85000
C680        C  0.89274970  0.49138092  0.50353348     0.84600
O681        O  0.54372529  0.51147980  0.41209100    -0.76500
C682        C  0.96065909  0.91750247  0.36010849     0.85400
O683        O  0.99349400  0.59799077  0.46103437    -0.76600
C684        C  0.85096263  0.51336845  0.29459401     0.85600
C685        C  0.98601196  0.60037334  0.24006705     0.85900
O686        O  0.96977793  0.62215654  0.28212357    -0.79000
C687        C  0.99036063  0.83460008  0.44837393     0.82200
N688        N  0.98766757  0.84428980  0.50596643    -0.76100
C689        C  0.97491039  0.80799263  0.54174828     0.84600
N690        N  0.96917920  0.76350047  0.51973780    -0.76100
C691        C  0.98215593  0.75314394  0.46636022     0.84700
N692        N  0.98876841  0.78884678  0.43015591    -0.77800
N693        N  0.53584287  0.57142746  0.85981506    -0.01500
C694        C  0.52195835  0.60019177  0.90298198     0.01100
C695        C  0.48774032  0.62483531  0.88190101    -0.21800
C696        C  0.48221954  0.61345276  0.82521471    -0.22000
C697        C  0.51178776  0.58071871  0.81228719     0.01000
H698        H  0.47239302  0.65277502  0.90394791     0.14700
H699        H  0.46017190  0.62880818  0.79606775     0.14800
N700        N  0.92148952  0.96395301  0.88890661    -0.01500
C701        C  0.89135025  0.97770859  0.84961378     0.01100
C702        C  0.86601761  0.01037097  0.87632139    -0.21800
C703        C  0.87825998  0.01447758  0.93246647    -0.22000
C704        C  0.91220430  0.98577471  0.93927071     0.01000
H705        H  0.83727633  0.02552526  0.85822408     0.14700
H706        H  0.86281526  0.03493938  0.96514456     0.14800
O707        O  0.53997224  0.89009634  0.74735282    -0.76500
C708        C  0.56399998  0.53321378  0.86272927     0.84500
O709        O  0.68593390  0.89807297  0.81704271    -0.77700
O710        O  0.60233147  0.94156509  0.99109078    -0.79100
O711        O  0.96041640  0.89896185  0.85867281    -0.78900
O712        O  0.51782234  0.82480453  0.79120751    -0.77600
Zn713      Zn  0.57717347  0.93610368  0.80322997     1.55700
O714        O  0.99890789  0.95832768  0.90567526    -0.79000
Cd715      Cd  0.52110082  0.86582418  0.86107958     1.59700
Cd716      Cd  0.63603913  0.88005513  0.88804191     1.59600
O717        O  0.52613358  0.82828036  0.92813882    -0.79000
O718        O  0.57991229  0.90774038  0.86664370    -1.89500
Cd719      Cd  0.56878666  0.95699761  0.92008118     1.59900
O720        O  0.60216916  0.81992616  0.93689766    -0.78900
O721        O  0.58775417  0.52721864  0.90600188    -0.77600
C722        C  0.67864327  0.93039030  0.78221220     0.85000
C723        C  0.52078038  0.84764175  0.74628158     0.84600
O724        O  0.55724791  0.99973632  0.82581814    -0.76500
C725        C  0.96153445  0.93894255  0.88288666     0.85400
O726        O  0.63942855  0.94410206  0.78062555    -0.76600
C727        C  0.55880360  0.81102249  0.95244315     0.85600
C728        C  0.64617088  0.94171730  0.99300153     0.85900
O729        O  0.66771082  0.92356422  0.95236025    -0.79000
C730        C  0.86792123  0.94993677  0.80034646     0.82200
N731        N  0.82150966  0.93806345  0.81022686    -0.76100
C732        C  0.79147611  0.92545496  0.76746400     0.84600
N733        N  0.81052715  0.91056193  0.71881220    -0.76100
C734        C  0.85335628  0.93067076  0.70242213     0.84700
N735        N  0.88290297  0.95198251  0.74423190    -0.77800
O736        O  0.52574720  0.52093834  0.74252970    -0.76500
C737        C  0.52097130  0.88991332  0.63100236     0.84500
O738        O  0.66292232  0.53541132  0.64728317    -0.77700
O739        O  0.56233653  0.96101924  0.48978386    -0.79100
O740        O  0.94840959  0.51807921  0.63441812    -0.78900
O741        O  0.51769987  0.59030324  0.71149427    -0.77600
Zn742      Zn  0.55445487  0.98442651  0.67914275     1.55700
O743        O  0.96282714  0.95468925  0.58280496    -0.79000
Cd744      Cd  0.51098411  0.55927562  0.63136201     1.59700
Cd745      Cd  0.61352908  0.54573384  0.58319366     1.59600
O746        O  0.51897080  0.60801797  0.56954729    -0.79000
O747        O  0.55618185  0.51605905  0.61381297    -1.89500
Cd748      Cd  0.53277269  0.96157016  0.56674119     1.59900
O749        O  0.59579399  0.61174286  0.55279539    -0.78900
O750        O  0.54794819  0.89852595  0.58990502    -0.77600
C751        C  0.66092272  0.50288388  0.68414995     0.85000
C752        C  0.51865019  0.56306260  0.75262795     0.84600
O753        O  0.51260554  0.92316280  0.66488047    -0.76500
C754        C  0.93566506  0.47771359  0.61234246     0.85400
O755        O  0.62233292  0.47830749  0.69484219    -0.76600
C756        C  0.55594975  0.62666928  0.54549632     0.85600
C757        C  0.60406396  0.97676527  0.47805473     0.85900
O758        O  0.62903944  0.50568067  0.51100324    -0.79000
N759        N  0.50051337  0.84351163  0.64157186    -0.01500
C760        C  0.47813628  0.81028033  0.60549230     0.01100
C761        C  0.46279481  0.77104485  0.63659425    -0.21800
C762        C  0.47661323  0.78008756  0.69172734    -0.22000
C763        C  0.49981185  0.82475136  0.69370311     0.01000
H764        H  0.44465440  0.73823159  0.62055186     0.14700
H765        H  0.47074418  0.75634227  0.72640782     0.14800
N766        N  0.88778505  0.96404883  0.60523206    -0.01500
C767        C  0.85403202  0.94329020  0.64006151     0.01100
C768        C  0.81286088  0.93689747  0.60867420    -0.21800
C769        C  0.82172663  0.95435861  0.55571686    -0.22000
C770        C  0.86819308  0.97078107  0.55459624     0.01000
H771        H  0.77887261  0.92191026  0.62294477     0.14700
H772        H  0.79690067  0.95465451  0.52171539     0.14800
N773        N  0.71402052  0.95797160  0.74902402    -0.01500
C774        C  0.76124171  0.96196997  0.75403858     0.01100
C775        C  0.78112556  0.00097048  0.72560592    -0.21800
C776        C  0.74669315  0.01943992  0.69855609    -0.22000
C777        C  0.70562013  0.99300373  0.71222174     0.01000
H778        H  0.81777195  0.01275127  0.72091775     0.14700
H779        H  0.75142630  0.54858624  0.67047580     0.14800
N780        N  0.51364794  0.67620308  0.47928414    -0.01500
C781        C  0.51949138  0.72248266  0.46743254     0.01100
C782        C  0.56205310  0.74271658  0.48911073    -0.21800
C783        C  0.58189071  0.70907777  0.51689955    -0.22000
C784        C  0.55149904  0.66880874  0.51134685     0.01000
H785        H  0.57420180  0.77976439  0.49201046     0.14700
H786        H  0.61294092  0.71451739  0.54260284     0.14800
N787        N  0.54259587  0.77957170  0.99675307    -0.01500
C788        C  0.53659187  0.73223428  0.98900637     0.01100
C789        C  0.49613426  0.71346323  0.01615354    -0.21800
C790        C  0.47843295  0.74892866  0.04475035    -0.22000
C791        C  0.50654291  0.78910005  0.03183645     0.01000
H792        H  0.48312510  0.67680198  0.01960329     0.14700
H793        H  0.94799709  0.74569882  0.07184524     0.14800
N794        N  0.81953601  0.99261310  0.25106180    -0.01500
C795        C  0.77287502  0.98521086  0.25842289     0.01100
C796        C  0.75533756  0.94193146  0.23407198    -0.21800
C797        C  0.79148948  0.92234901  0.21002292    -0.22000
C798        C  0.83014493  0.95345393  0.22141900     0.01000
H799        H  0.71919317  0.92797816  0.22930730     0.14700
H800        H  0.78954462  0.88997621  0.18500038     0.14800
loop_ 
_geom_bond_atom_site_label_1 
_geom_bond_atom_site_label_2 
_geom_bond_distance 
_geom_bond_site_symmetry_2 
_ccdc_geom_bond_type 
C1            N6   1.364   1_565  A
C1          N202   1.385       .  A
C1          C251   1.502       .  S
N2            C3   1.387       .  A
N2          C201   1.385       .  A
C3            N4   1.359       .  A
C3            C8   1.512       .  S
N4          C205   1.348       .  A
C5            N6   1.348       .  A
C5          N204   1.348       .  A
C5          C395   1.479   1_545  S
N7           C11   1.356       .  A
N7            C8   1.355       .  A
N7           C22   1.410       .  S
C8            C9   1.395       .  A
C9           C10   1.380       .  A
C9           H12   1.082       .  S
C10          C11   1.377       .  A
C10          H13   1.083       .  S
C11         C128   1.485   1_554  S
N14          C18   1.358       .  A
N14          C15   1.354       .  A
N14         C439   1.393       .  S
C15          C46   1.522       .  S
C15          C16   1.397       .  A
C16          C17   1.387       .  A
C16          H19   1.082       .  S
C17          C18   1.378       .  A
C17          H20   1.082       .  S
C18         C485   1.514   1_455  S
O21          C37   1.274       .  A
O21        Zn427   2.032   1_556  S
C22          O38   1.275       .  A
C22          O35   1.251       .  A
O23          C36   1.291       .  A
O23         Cd30   2.105       .  S
O24          C42   1.264       .  A
O24         Cd33   1.981       .  S
O25          C39   1.262       .  A
O25        Cd229   1.990   1_545  S
O26          C37   1.267   1_554  A
O26         Cd29   2.033       .  S
Zn27         O38   2.051       .  S
Zn27        O421   2.032   1_454  S
Zn27        O440   2.026       .  S
Zn27        O432   1.817   1_455  S
O28         C439   1.276       .  A
O28        Cd233   2.034   1_545  S
Cd29         O31   2.008       .  S
Cd29        O225   1.990       .  S
Cd29         O32   1.909       .  S
Cd30         O34   2.152       .  S
Cd30         O43   2.098       .  S
Cd30         O32   1.887       .  S
O31          C41   1.269       .  A
O32        Zn427   1.817       .  S
O32        Cd433   1.913       .  S
Cd33         O35   1.961       .  S
Cd33        O228   2.034       .  S
Cd33        O432   1.913   1_455  S
O34          C41   1.294       .  A
C36         C591   1.485       .  S
C36          O40   1.279       .  A
C37         C104   1.494       .  S
C39         N414   1.393       .  S
C39         O428   1.276       .  A
O40        Zn427   2.026       .  S
C41         C198   1.470       .  S
C42          C61   1.451       .  S
C42         O443   1.278   1_455  A
O43         C442   1.278       .  A
C44          N45   1.391   1_556  A
C44          N49   1.364       .  A
C44          C94   1.508       .  S
N45          C46   1.391       .  A
C46          N47   1.360       .  A
N47          C48   1.352   1_554  A
C48          N49   1.350       .  A
C48         C188   1.483       .  S
N50          C54   1.356       .  A
N50          C51   1.375       .  A
N50         C265   1.450       .  S
C51         C201   1.502       .  S
C51          C52   1.397       .  A
C52          C53   1.372       .  A
C52          H55   1.083       .  S
C53          C54   1.369       .  A
C53          H56   1.082       .  S
C54         C157   1.464       .  S
N57          C61   1.352   1_655  A
N57          C58   1.375   1_655  A
N57         C482   1.458       .  S
C58         C487   1.493   1_455  S
C58          C59   1.395       .  A
C59          C60   1.370       .  A
C59          H62   1.082       .  S
C60          C61   1.368       .  A
C60          H63   1.082       .  S
O64          C80   1.290       .  A
O64         Zn70   2.129   1_565  S
C65         N250   1.450   1_545  S
C65          O81   1.287       .  A
C65          O78   1.261       .  A
O66          C79   1.300       .  A
O66         Cd73   2.215       .  S
O67         C485   1.286       .  A
O67         Cd76   2.109       .  S
O68          C82   1.263       .  A
O68         Cd72   2.080       .  S
O69         C280   1.259       .  A
O69         Cd72   1.987       .  S
Zn70         O83   1.898       .  S
Zn70        O481   2.067       .  S
Zn70         O75   1.803       .  S
O71          C82   1.291       .  A
O71        Cd676   2.136       .  S
Cd72        O274   1.940       .  S
Cd72        O275   1.938       .  S
Cd73         O77   2.239       .  S
Cd73         O86   2.092       .  S
Cd73         O75   1.945       .  S
O74          C84   1.267   1_565  A
O74        Cd272   1.940       .  S
O75        Cd272   1.938   1_545  S
O75        Cd476   1.954       .  S
Cd76         O78   2.058   1_655  S
Cd76        O671   2.136   1_545  S
Cd76        O475   1.954       .  S
O77          C84   1.305       .  A
C79         N580   1.455       .  S
C79          O83   1.264       .  A
C80         C370   1.498       .  S
C80         O269   1.259       .  A
O81        Zn470   2.067   1_455  S
C82         N457   1.458       .  S
C84         N394   1.442   1_545  S
C85         C418   1.514       .  S
C85          O86   1.274       .  A
C85         O467   1.286       .  A
C87          N88   1.381       .  A
C87          N92   1.367       .  A
C87         C458   1.493       .  S
N88          C89   1.378       .  A
C89          N90   1.358       .  A
C89         C560   1.506       .  S
N90          C91   1.346       .  A
C91          N92   1.352       .  A
C91         C581   1.478       .  S
N93          C97   1.375       .  A
N93          C94   1.380       .  A
N93         C108   1.451       .  S
C94          C95   1.391   1_455  A
C95          C96   1.372       .  A
C95          H98   1.082       .  S
C96          C97   1.375   1_655  A
C96          H99   1.082       .  S
C97         C152   1.500       .  S
N100        C104   1.366       .  A
N100        C101   1.378       .  A
N100        C125   1.443       .  S
C101        C130   1.507       .  S
C101        C102   1.394       .  A
C102        C103   1.371       .  A
C102        H105   1.083       .  S
C103        C104   1.373       .  A
C103        H106   1.082       .  S
O107        C123   1.280       .  A
O107       Zn113   2.053       .  S
C108        O121   1.263       .  A
C108        O324   1.275   1_545  A
O109        C122   1.298       .  A
O109       Cd116   2.238       .  S
O110        C128   1.272       .  A
O110       Cd119   2.031       .  S
O111        C125   1.265       .  A
O111       Cd515   2.103       .  S
O112        C123   1.262       .  A
O112       Cd115   1.992       .  S
Zn113       O124   2.040       .  S
Zn113       O126   1.868       .  S
Zn113       O118   1.734       .  S
O114        C125   1.272       .  A
O114       Cd519   2.063       .  S
Cd115       O117   1.960       .  S
Cd115       O511   2.103   1_455  S
Cd115       O118   1.969       .  S
Cd116       O120   2.234       .  S
Cd116       O129   2.081       .  S
Cd116       O118   1.973       .  S
O117        C127   1.270       .  A
O118       Cd119   1.921       .  S
Cd119       O514   2.063   1_455  S
Cd119       O321   2.068       .  S
O120        C127   1.305       .  A
O121       Cd319   2.068   1_545  S
C122        N173   1.459       .  S
C122        O126   1.249       .  A
C123        C163   1.484   1_455  S
O124        C308   1.275       .  A
C127        N187   1.444       .  S
C128        O129   1.273       .  A
C130        N131   1.369       .  A
C130        N135   1.391       .  A
N131        C132   1.349       .  A
C132        N133   1.350       .  A
C132        C174   1.491       .  S
N133        C134   1.364       .  A
C134        N135   1.389       .  A
C134        C167   1.525       .  S
O136        C152   1.269       .  A
O136       Zn342   2.029   1_545  S
C137        N159   1.423       .  S
C137        O153   1.271       .  A
C137        O150   1.253       .  A
O138        C151   1.294       .  A
O138       Cd145   2.142       .  S
O139        C157   1.272       .  A
O139       Cd148   2.002       .  S
O140        C154   1.272   1_545  A
O140       Cd544   2.047       .  S
O141        C152   1.269       .  A
O141       Cd144   2.064       .  S
Zn142       O153   2.036       .  S
Zn142       O336   2.030       .  S
Zn142       O355   2.036       .  S
Zn142       O347   1.814       .  S
O143        C354   1.278       .  A
O143       Cd548   2.049       .  S
Cd144       O146   2.048       .  S
Cd144       O540   2.047   1_455  S
Cd144       O147   1.947       .  S
Cd145       O149   2.172       .  S
Cd145       O158   2.102       .  S
Cd145       O147   1.923       .  S
O146        C156   1.278       .  A
O147       Zn342   1.814   1_545  S
O147       Cd348   1.947   1_545  S
Cd148       O150   2.011       .  S
Cd148       O543   2.049   1_455  S
Cd148       O347   1.947       .  S
O149        C156   1.295       .  A
C151        C377   1.522   1_545  S
C151        O155   1.278   1_545  A
C154        N366   1.407       .  S
C154        O343   1.278       .  A
O155       Zn342   2.036       .  S
C156        C184   1.496       .  S
C157        O358   1.280       .  A
O158        C357   1.280   1_545  A
N159        C163   1.358   1_455  A
N159        C160   1.366   1_455  A
C160        C489   1.506       .  S
C160        C161   1.392       .  A
C161        C162   1.371       .  A
C161        H164   1.082       .  S
C162        C163   1.377       .  A
C162        H165   1.082       .  S
N166        C170   1.356       .  A
N166        C167   1.367       .  A
N166        C354   1.407       .  S
C167        C168   1.399       .  A
C168        C169   1.372       .  A
C168        H171   1.083       .  S
C169        C170   1.374       .  A
C169        H172   1.082       .  S
C170        C280   1.498       .  S
N173        C177   1.396       .  A
N173        C174   1.366       .  A
C174        C175   1.389       .  A
C175        C176   1.359       .  A
C175        H178   1.082       .  S
C176        C177   1.376       .  A
C176        H379   1.083       .  S
C177        C351   1.522       .  S
H179        C376   1.083       .  S
N180        C184   1.379       .  A
N180        C181   1.360       .  A
N180        C479   1.455   1_455  S
C181        C491   1.478   1_455  S
C181        C182   1.393       .  A
C182        C183   1.371       .  A
C182        H185   1.082       .  S
C183        C184   1.372       .  A
C183        H186   1.082       .  S
N187        C191   1.377   1_556  A
N187        C188   1.359       .  A
C188        C189   1.392   1_456  A
C189        C190   1.356       .  A
C189        H192   1.082       .  S
C190        C191   1.373   1_655  A
C190        H593   1.083       .  S
C191        C436   1.485   1_455  S
H193        C590   1.083       .  S
N194        C198   1.372       .  A
N194        C195   1.355       .  A
N194        C284   1.442       .  S
C195        C205   1.479       .  S
C195        C196   1.394       .  A
C196        C197   1.361       .  A
C196        H199   1.082       .  S
C197        C198   1.370       .  A
C197        H200   1.082       .  S
C201        N206   1.364       .  A
N202        C203   1.387   1_565  A
C203        N204   1.359       .  A
C203        C208   1.512   1_545  S
C205        N206   1.348       .  A
N207        C211   1.356       .  A
N207        C208   1.355       .  A
N207        C222   1.410       .  S
C208        C209   1.395       .  A
C209        C210   1.380       .  A
C209        H212   1.082   1_565  S
C210        C211   1.377       .  A
C210        H213   1.083       .  S
C211        C328   1.485   1_554  S
N214        C218   1.357       .  A
N214        C215   1.354       .  A
N214        C639   1.393       .  S
C215        C246   1.522       .  S
C215        C216   1.397       .  A
C216        C217   1.387       .  A
C216        H219   1.082       .  S
C217        C218   1.378       .  A
C217        H220   1.082       .  S
C218        C685   1.514   1_455  S
O221        C237   1.274       .  A
O221       Zn627   2.032   1_556  S
C222        O238   1.275       .  A
C222        O235   1.251       .  A
O223        C236   1.291       .  A
O223       Cd230   2.105       .  S
O224        C242   1.264       .  A
O224       Cd233   1.981       .  S
O225        C239   1.262       .  A
O226        C237   1.267   1_554  A
O226       Cd229   2.033       .  S
Zn227       O621   2.032   1_454  S
Zn227       O238   2.051       .  S
Zn227       O640   2.026       .  S
Zn227       O632   1.817   1_455  S
O228        C639   1.276       .  A
Cd229       O231   2.007       .  S
Cd229       O232   1.909       .  S
Cd230       O234   2.153       .  S
Cd230       O243   2.098       .  S
Cd230       O232   1.887       .  S
O231        C241   1.269       .  A
O232       Zn627   1.817       .  S
O232       Cd633   1.913       .  S
Cd233       O235   1.961       .  S
Cd233       O632   1.913   1_455  S
O234        C241   1.294       .  A
C236        C791   1.485       .  S
C236        O240   1.279       .  A
C237        C304   1.494       .  S
C239        N614   1.393       .  S
C239        O628   1.276       .  A
O240       Zn627   2.026       .  S
C241        C398   1.470       .  S
C242        C261   1.451       .  S
C242        O643   1.278   1_455  A
O243        C642   1.278       .  A
C244        N245   1.391   1_556  A
C244        N249   1.364       .  A
C244        C294   1.508       .  S
N245        C246   1.391       .  A
C246        N247   1.360       .  A
N247        C248   1.352   1_554  A
C248        N249   1.350       .  A
C248        C388   1.483       .  S
N250        C254   1.356       .  A
N250        C251   1.375       .  A
C251        C252   1.397       .  A
C252        C253   1.372       .  A
C252        H255   1.083       .  S
C253        C254   1.369       .  A
C253        H256   1.082       .  S
C254        C357   1.465       .  S
N257        C261   1.352   1_655  A
N257        C258   1.375   1_655  A
N257        C682   1.458       .  S
C258        C687   1.493   1_455  S
C258        C259   1.395       .  A
C259        C260   1.370       .  A
C259        H262   1.082       .  S
C260        C261   1.368       .  A
C260        H263   1.082       .  S
O264        C280   1.290       .  A
O264       Zn270   2.129       .  S
C265        O281   1.287       .  A
C265        O278   1.261       .  A
O266        C279   1.300       .  A
O266       Cd273   2.215       .  S
O267        C685   1.286       .  A
O267       Cd276   2.109       .  S
O268        C282   1.263       .  A
O268       Cd272   2.080       .  S
O269       Cd272   1.987       .  S
Zn270       O681   2.067       .  S
Zn270       O283   1.898       .  S
Zn270       O275   1.803       .  S
O271        C282   1.291       .  A
O271       Cd476   2.136   1_565  S
Cd273       O277   2.239       .  S
Cd273       O286   2.092       .  S
Cd273       O275   1.945       .  S
O274        C284   1.267       .  A
O275       Cd676   1.954       .  S
Cd276       O471   2.136       .  S
Cd276       O278   2.058   1_655  S
Cd276       O675   1.954       .  S
O277        C284   1.305       .  A
C279        N780   1.454       .  S
C279        O283   1.264       .  A
O281       Zn670   2.067   1_455  S
C282        N657   1.458       .  S
C285        C618   1.514       .  S
C285        O667   1.286       .  A
C285        O286   1.274       .  A
C287        N288   1.381       .  A
C287        N292   1.367       .  A
C287        C658   1.493       .  S
N288        C289   1.378       .  A
C289        N290   1.358       .  A
C289        C760   1.506       .  S
N290        C291   1.346       .  A
C291        N292   1.352       .  A
C291        C781   1.478       .  S
N293        C297   1.375       .  A
N293        C294   1.380       .  A
N293        C308   1.451       .  S
C294        C295   1.391   1_455  A
C295        C296   1.372       .  A
C295        H298   1.082       .  S
C296        C297   1.375   1_655  A
C296        H299   1.082       .  S
C297        C352   1.500       .  S
N300        C304   1.366       .  A
N300        C301   1.378       .  A
N300        C325   1.443       .  S
C301        C330   1.507       .  S
C301        C302   1.394   1_565  A
C302        C303   1.371       .  A
C302        H305   1.083       .  S
C303        C304   1.373   1_545  A
C303        H306   1.082       .  S
O307        C323   1.280       .  A
O307       Zn313   2.053       .  S
C308        O321   1.263       .  A
O309        C322   1.298       .  A
O309       Cd316   2.238       .  S
O310        C328   1.272       .  A
O310       Cd319   2.031       .  S
O311        C325   1.265       .  A
O311       Cd715   2.103       .  S
O312        C323   1.262       .  A
O312       Cd315   1.992       .  S
Zn313       O324   2.040       .  S
Zn313       O326   1.869       .  S
Zn313       O318   1.734       .  S
O314        C325   1.272       .  A
O314       Cd719   2.063       .  S
Cd315       O711   2.103   1_455  S
Cd315       O317   1.960       .  S
Cd315       O318   1.969       .  S
Cd316       O320   2.234       .  S
Cd316       O329   2.081       .  S
Cd316       O318   1.973       .  S
O317        C327   1.270       .  A
O318       Cd319   1.921       .  S
Cd319       O714   2.063   1_455  S
O320        C327   1.305       .  A
C322        N373   1.459       .  S
C322        O326   1.250       .  A
C323        C363   1.484   1_455  S
C327        N387   1.444       .  S
C328        O329   1.273       .  A
C330        N331   1.369       .  A
C330        N335   1.391       .  A
N331        C332   1.349       .  A
C332        N333   1.350       .  A
C332        C374   1.491       .  S
N333        C334   1.364       .  A
C334        N335   1.389       .  A
C334        C367   1.526       .  S
O336        C352   1.269       .  A
C337        N359   1.423       .  S
C337        O353   1.272       .  A
C337        O350   1.253       .  A
O338        C351   1.294       .  A
O338       Cd345   2.142       .  S
O339        C357   1.272       .  A
O339       Cd348   2.002       .  S
O340        C354   1.272       .  A
O340       Cd744   2.047       .  S
O341        C352   1.269       .  A
O341       Cd344   2.064       .  S
Zn342       O353   2.036       .  S
O343       Cd748   2.049       .  S
Cd344       O740   2.047   1_455  S
Cd344       O346   2.048       .  S
Cd344       O347   1.947       .  S
Cd345       O349   2.172       .  S
Cd345       O358   2.102       .  S
Cd345       O347   1.923       .  S
O346        C356   1.278       .  A
Cd348       O743   2.049   1_455  S
Cd348       O350   2.011       .  S
O349        C356   1.295       .  A
C351        O355   1.278       .  A
C356        C384   1.496       .  S
N359        C363   1.358   1_455  A
N359        C360   1.366   1_455  A
C360        C689   1.506       .  S
C360        C361   1.392       .  A
C361        C362   1.371       .  A
C361        H364   1.082       .  S
C362        C363   1.377       .  A
C362        H365   1.082       .  S
N366        C370   1.356       .  A
N366        C367   1.367       .  A
C367        C368   1.399       .  A
C368        C369   1.372       .  A
C368        H371   1.083       .  S
C369        C370   1.374       .  A
C369        H372   1.082       .  S
N373        C377   1.396       .  A
N373        C374   1.366       .  A
C374        C375   1.389   1_565  A
C375        C376   1.359       .  A
C375        H378   1.082       .  S
C376        C377   1.376   1_545  A
N380        C384   1.379       .  A
N380        C381   1.360       .  A
N380        C679   1.454   1_455  S
C381        C691   1.478   1_455  S
C381        C382   1.393       .  A
C382        C383   1.371       .  A
C382        H385   1.082       .  S
C383        C384   1.372       .  A
C383        H386   1.082       .  S
N387        C391   1.377   1_556  A
N387        C388   1.359       .  A
C388        C389   1.392   1_456  A
C389        C390   1.356       .  A
C389        H392   1.082       .  S
C390        C391   1.373   1_655  A
C390        H793   1.083       .  S
C391        C636   1.485   1_455  S
H393        C790   1.083       .  S
N394        C398   1.372       .  A
N394        C395   1.355       .  A
C395        C396   1.394       .  A
C396        C397   1.361       .  A
C396        H399   1.082       .  S
C397        C398   1.370       .  A
C397        H400   1.082       .  S
C401        N602   1.385       .  A
C401        N406   1.364   1_565  A
C401        C651   1.502       .  S
N402        C601   1.385       .  A
N402        C403   1.387       .  A
C403        N404   1.359       .  A
C403        C408   1.512       .  S
N404        C605   1.348       .  A
C405        N604   1.348       .  A
C405        N406   1.348       .  A
C405        C795   1.479   1_545  S
N407        C411   1.356       .  A
N407        C408   1.355       .  A
N407        C422   1.410       .  S
C408        C409   1.395       .  A
C409        C410   1.380       .  A
C409        H412   1.082       .  S
C410        C411   1.377       .  A
C410        H413   1.083       .  S
C411        C528   1.485   1_554  S
N414        C418   1.358       .  A
N414        C415   1.354       .  A
C415        C446   1.522       .  S
C415        C416   1.397       .  A
C416        C417   1.387       .  A
C416        H419   1.082       .  S
C417        C418   1.378       .  A
C417        H420   1.082       .  S
O421        C437   1.274       .  A
C422        O438   1.275       .  A
C422        O435   1.251       .  A
O423        C436   1.291       .  A
O423       Cd430   2.105       .  S
O424        C442   1.264       .  A
O424       Cd433   1.981       .  S
O425        C439   1.262   1_655  A
O425       Cd629   1.990   1_545  S
O426        C437   1.267   1_554  A
O426       Cd429   2.033       .  S
Zn427       O438   2.051       .  S
O428       Cd633   2.034   1_545  S
Cd429       O625   1.990       .  S
Cd429       O431   2.008       .  S
Cd429       O432   1.909       .  S
Cd430       O434   2.152       .  S
Cd430       O443   2.098       .  S
Cd430       O432   1.887       .  S
O431        C441   1.269       .  A
Cd433       O628   2.034       .  S
Cd433       O435   1.961       .  S
O434        C441   1.294       .  A
C436        O440   1.279   1_655  A
C437        C504   1.494       .  S
C441        C598   1.470       .  S
C442        C461   1.451       .  S
C444        N445   1.391   1_556  A
C444        N449   1.364       .  A
C444        C494   1.508       .  S
N445        C446   1.391       .  A
C446        N447   1.360       .  A
N447        C448   1.352   1_554  A
C448        N449   1.350       .  A
C448        C588   1.483       .  S
N450        C454   1.356       .  A
N450        C451   1.375       .  A
N450        C665   1.450       .  S
C451        C601   1.502       .  S
C451        C452   1.397       .  A
C452        C453   1.372       .  A
C452        H455   1.083       .  S
C453        C454   1.369       .  A
C453        H456   1.082       .  S
C454        C557   1.464       .  S
N457        C461   1.352       .  A
N457        C458   1.375       .  A
C458        C459   1.395       .  A
C459        C460   1.370       .  A
C459        H462   1.082       .  S
C460        C461   1.368       .  A
C460        H463   1.082       .  S
O464        C480   1.290       .  A
O464       Zn470   2.129   1_565  S
C465        N650   1.450   1_545  S
C465        O481   1.287       .  A
C465        O478   1.261       .  A
O466        C479   1.300       .  A
O466       Cd473   2.215       .  S
O467       Cd476   2.109       .  S
O468        C482   1.263       .  A
O468       Cd472   2.080       .  S
O469        C680   1.259       .  A
O469       Cd472   1.987       .  S
Zn470       O483   1.898       .  S
Zn470       O475   1.803       .  S
O471        C482   1.291       .  A
Cd472       O674   1.940       .  S
Cd472       O675   1.938       .  S
Cd473       O477   2.239       .  S
Cd473       O486   2.092       .  S
Cd473       O475   1.945       .  S
O474        C484   1.267   1_565  A
O474       Cd672   1.940       .  S
O475       Cd672   1.938   1_545  S
Cd476       O478   2.058       .  S
O477        C484   1.305       .  A
C479        O483   1.264       .  A
C480        C770   1.498       .  S
C480        O669   1.259       .  A
C484        N794   1.442   1_545  S
C485        O486   1.274       .  A
C487        N488   1.381       .  A
C487        N492   1.367       .  A
N488        C489   1.378       .  A
C489        N490   1.358       .  A
N490        C491   1.346       .  A
C491        N492   1.352       .  A
N493        C497   1.375       .  A
N493        C494   1.380       .  A
N493        C508   1.451       .  S
C494        C495   1.391       .  A
C495        C496   1.372       .  A
C495        H498   1.082       .  S
C496        C497   1.375       .  A
C496        H499   1.082       .  S
C497        C552   1.500       .  S
N500        C504   1.366       .  A
N500        C501   1.378       .  A
N500        C525   1.443       .  S
C501        C530   1.507       .  S
C501        C502   1.394       .  A
C502        C503   1.371       .  A
C502        H505   1.083       .  S
C503        C504   1.373       .  A
C503        H506   1.082       .  S
O507        C523   1.280       .  A
O507       Zn513   2.053       .  S
C508        O724   1.275   1_545  A
C508        O521   1.263       .  A
O509        C522   1.298       .  A
O509       Cd516   2.238       .  S
O510        C528   1.272       .  A
O510       Cd519   2.031       .  S
O511        C525   1.265       .  A
O512        C523   1.262       .  A
O512       Cd515   1.992       .  S
Zn513       O524   2.040       .  S
Zn513       O526   1.868       .  S
Zn513       O518   1.734       .  S
O514        C525   1.272       .  A
Cd515       O517   1.960       .  S
Cd515       O518   1.969       .  S
Cd516       O520   2.234       .  S
Cd516       O529   2.081       .  S
Cd516       O518   1.973       .  S
O517        C527   1.270       .  A
O518       Cd519   1.921       .  S
Cd519       O721   2.068       .  S
O520        C527   1.305       .  A
O521       Cd719   2.068   1_545  S
C522        N573   1.459       .  S
C522        O526   1.249       .  A
C523        C563   1.484       .  S
O524        C708   1.275       .  A
C527        N587   1.444       .  S
C528        O529   1.273       .  A
C530        N531   1.369       .  A
C530        N535   1.391       .  A
N531        C532   1.349       .  A
C532        N533   1.350       .  A
C532        C574   1.491       .  S
N533        C534   1.364       .  A
C534        N535   1.389       .  A
C534        C567   1.525       .  S
O536        C552   1.269       .  A
O536       Zn742   2.029   1_545  S
C537        N559   1.423       .  S
C537        O553   1.271       .  A
C537        O550   1.253       .  A
O538        C551   1.294       .  A
O538       Cd545   2.142       .  S
O539        C557   1.272       .  A
O539       Cd548   2.002       .  S
O540        C554   1.272   1_545  A
O541        C552   1.269       .  A
O541       Cd544   2.064       .  S
Zn542       O736   2.030       .  S
Zn542       O553   2.036       .  S
Zn542       O755   2.036       .  S
Zn542       O747   1.814       .  S
O543        C754   1.278       .  A
Cd544       O546   2.048       .  S
Cd544       O547   1.947       .  S
Cd545       O549   2.172       .  S
Cd545       O558   2.102       .  S
Cd545       O547   1.923       .  S
O546        C556   1.278       .  A
O547       Zn742   1.814   1_545  S
O547       Cd748   1.947   1_545  S
Cd548       O550   2.011       .  S
Cd548       O747   1.947       .  S
O549        C556   1.295       .  A
C551        C777   1.522   1_545  S
C551        O555   1.278   1_545  A
C554        N766   1.407       .  S
C554        O743   1.278       .  A
O555       Zn742   2.036       .  S
C556        C584   1.496       .  S
C557        O758   1.280       .  A
O558        C757   1.280   1_545  A
N559        C563   1.358       .  A
N559        C560   1.366       .  A
C560        C561   1.392       .  A
C561        C562   1.371       .  A
C561        H564   1.082       .  S
C562        C563   1.377       .  A
C562        H565   1.082       .  S
N566        C570   1.356       .  A
N566        C567   1.367       .  A
N566        C754   1.407       .  S
C567        C568   1.399       .  A
C568        C569   1.372       .  A
C568        H571   1.083       .  S
C569        C570   1.374       .  A
C569        H572   1.082       .  S
C570        C680   1.498       .  S
N573        C577   1.396       .  A
N573        C574   1.366       .  A
C574        C575   1.389       .  A
C575        C576   1.359       .  A
C575        H578   1.082       .  S
C576        C577   1.376       .  A
C576        H779   1.083       .  S
C577        C751   1.522       .  S
H579        C776   1.083       .  S
N580        C584   1.379       .  A
N580        C581   1.360       .  A
C581        C582   1.393       .  A
C582        C583   1.371       .  A
C582        H585   1.082       .  S
C583        C584   1.372       .  A
C583        H586   1.082       .  S
N587        C591   1.377   1_556  A
N587        C588   1.359       .  A
C588        C589   1.392   1_556  A
C589        C590   1.356       .  A
C589        H592   1.082       .  S
C590        C591   1.373       .  A
N594        C598   1.372       .  A
N594        C595   1.355       .  A
N594        C684   1.442       .  S
C595        C605   1.479       .  S
C595        C596   1.394       .  A
C596        C597   1.361       .  A
C596        H599   1.082       .  S
C597        C598   1.370       .  A
C597        H600   1.082       .  S
C601        N606   1.364       .  A
N602        C603   1.387   1_565  A
C603        N604   1.359       .  A
C603        C608   1.512   1_545  S
C605        N606   1.348       .  A
N607        C611   1.356       .  A
N607        C608   1.355       .  A
N607        C622   1.410       .  S
C608        C609   1.395       .  A
C609        C610   1.380       .  A
C609        H612   1.082   1_565  S
C610        C611   1.377       .  A
C610        H613   1.083       .  S
C611        C728   1.485   1_554  S
N614        C618   1.357       .  A
N614        C615   1.354       .  A
C615        C646   1.522       .  S
C615        C616   1.397       .  A
C616        C617   1.387       .  A
C616        H619   1.082       .  S
C617        C618   1.378       .  A
C617        H620   1.082       .  S
O621        C637   1.274       .  A
C622        O638   1.275       .  A
C622        O635   1.251       .  A
O623        C636   1.291       .  A
O623       Cd630   2.105       .  S
O624        C642   1.264       .  A
O624       Cd633   1.981       .  S
O625        C639   1.262   1_655  A
O626        C637   1.267   1_554  A
O626       Cd629   2.033       .  S
Zn627       O638   2.051       .  S
Cd629       O631   2.007       .  S
Cd629       O632   1.909       .  S
Cd630       O634   2.153       .  S
Cd630       O643   2.098       .  S
Cd630       O632   1.887       .  S
O631        C641   1.269       .  A
Cd633       O635   1.961       .  S
O634        C641   1.294       .  A
C636        O640   1.279   1_655  A
C637        C704   1.494       .  S
C641        C798   1.470       .  S
C642        C661   1.451       .  S
C644        N645   1.391   1_556  A
C644        N649   1.364       .  A
C644        C694   1.508       .  S
N645        C646   1.391       .  A
C646        N647   1.360       .  A
N647        C648   1.352   1_554  A
C648        N649   1.350       .  A
C648        C788   1.483       .  S
N650        C654   1.356       .  A
N650        C651   1.375       .  A
C651        C652   1.397       .  A
C652        C653   1.372       .  A
C652        H655   1.083       .  S
C653        C654   1.369       .  A
C653        H656   1.082       .  S
C654        C757   1.465       .  S
N657        C661   1.352       .  A
N657        C658   1.375       .  A
C658        C659   1.395       .  A
C659        C660   1.370       .  A
C659        H662   1.082       .  S
C660        C661   1.368       .  A
C660        H663   1.082       .  S
O664        C680   1.290       .  A
O664       Zn670   2.129       .  S
C665        O681   1.287       .  A
C665        O678   1.261       .  A
O666        C679   1.300       .  A
O666       Cd673   2.215       .  S
O667       Cd676   2.109       .  S
O668        C682   1.263       .  A
O668       Cd672   2.080       .  S
O669       Cd672   1.987       .  S
Zn670       O683   1.898       .  S
Zn670       O675   1.803       .  S
O671        C682   1.291       .  A
Cd673       O677   2.239       .  S
Cd673       O686   2.092       .  S
Cd673       O675   1.945       .  S
O674        C684   1.267       .  A
Cd676       O678   2.058       .  S
O677        C684   1.305       .  A
C679        O683   1.264       .  A
C685        O686   1.274       .  A
C687        N688   1.381       .  A
C687        N692   1.367       .  A
N688        C689   1.378       .  A
C689        N690   1.358       .  A
N690        C691   1.346       .  A
C691        N692   1.352       .  A
N693        C697   1.375       .  A
N693        C694   1.380       .  A
N693        C708   1.451       .  S
C694        C695   1.391       .  A
C695        C696   1.372       .  A
C695        H698   1.082       .  S
C696        C697   1.375       .  A
C696        H699   1.082       .  S
C697        C752   1.500       .  S
N700        C704   1.366       .  A
N700        C701   1.378       .  A
N700        C725   1.443       .  S
C701        C730   1.507       .  S
C701        C702   1.394   1_565  A
C702        C703   1.371       .  A
C702        H705   1.083       .  S
C703        C704   1.373   1_545  A
C703        H706   1.082       .  S
O707        C723   1.280       .  A
O707       Zn713   2.053       .  S
C708        O721   1.263       .  A
O709        C722   1.298       .  A
O709       Cd716   2.238       .  S
O710        C728   1.272       .  A
O710       Cd719   2.031       .  S
O711        C725   1.265       .  A
O712        C723   1.262       .  A
O712       Cd715   1.992       .  S
Zn713       O724   2.040       .  S
Zn713       O726   1.869       .  S
Zn713       O718   1.734       .  S
O714        C725   1.272       .  A
Cd715       O717   1.960       .  S
Cd715       O718   1.969       .  S
Cd716       O720   2.234       .  S
Cd716       O729   2.081       .  S
Cd716       O718   1.973       .  S
O717        C727   1.270       .  A
O718       Cd719   1.921       .  S
O720        C727   1.305       .  A
C722        N773   1.459       .  S
C722        O726   1.250       .  A
C723        C763   1.484       .  S
C727        N787   1.444       .  S
C728        O729   1.273       .  A
C730        N731   1.369       .  A
C730        N735   1.391       .  A
N731        C732   1.349       .  A
C732        N733   1.350       .  A
C732        C774   1.491       .  S
N733        C734   1.364       .  A
C734        N735   1.389       .  A
C734        C767   1.526       .  S
O736        C752   1.269       .  A
C737        N759   1.423       .  S
C737        O753   1.272       .  A
C737        O750   1.253       .  A
O738        C751   1.294       .  A
O738       Cd745   2.142       .  S
O739        C757   1.272       .  A
O739       Cd748   2.002       .  S
O740        C754   1.272       .  A
O741        C752   1.269       .  A
O741       Cd744   2.064       .  S
Zn742       O753   2.036       .  S
Cd744       O746   2.048       .  S
Cd744       O747   1.947       .  S
Cd745       O749   2.172       .  S
Cd745       O758   2.102       .  S
Cd745       O747   1.923       .  S
O746        C756   1.278       .  A
Cd748       O750   2.011       .  S
O749        C756   1.295       .  A
C751        O755   1.278       .  A
C756        C784   1.496       .  S
N759        C763   1.358       .  A
N759        C760   1.366       .  A
C760        C761   1.392       .  A
C761        C762   1.371       .  A
C761        H764   1.082       .  S
C762        C763   1.377       .  A
C762        H765   1.082       .  S
N766        C770   1.356       .  A
N766        C767   1.367       .  A
C767        C768   1.399       .  A
C768        C769   1.372       .  A
C768        H771   1.083       .  S
C769        C770   1.374       .  A
C769        H772   1.082       .  S
N773        C777   1.396       .  A
N773        C774   1.366       .  A
C774        C775   1.389   1_565  A
C775        C776   1.359       .  A
C775        H778   1.082       .  S
C776        C777   1.376   1_545  A
N780        C784   1.379       .  A
N780        C781   1.360       .  A
C781        C782   1.393       .  A
C782        C783   1.371       .  A
C782        H785   1.082       .  S
C783        C784   1.372       .  A
C783        H786   1.082       .  S
N787        C791   1.377   1_556  A
N787        C788   1.359       .  A
C788        C789   1.392   1_556  A
C789        C790   1.356       .  A
C789        H792   1.082       .  S
C790        C791   1.373       .  A
N794        C798   1.372       .  A
N794        C795   1.355       .  A
C795        C796   1.394       .  A
C796        C797   1.361       .  A
C796        H799   1.082       .  S
C797        C798   1.370       .  A
C797        H800   1.082       .  S
