geometry optimzed in LAMMPS
_audit_creation_date              2020-11-30 
_audit_creation_method            'lammps2cif' 
_symmetry_space_group_name_H-M    'P1' 
_symmetry_Int_Tables_number       1 
_symmetry_cell_setting            triclinic 
loop_ 
_symmetry_equiv_pos_as_xyz 
  x,y,z 
_cell_length_a                    32.66897012 
_cell_length_b                    37.67960351015535 
_cell_length_c                    22.933805480048797 
_cell_angle_alpha                 90.55214439104128 
_cell_angle_beta                  89.50670688710603 
_cell_angle_gamma                 89.53868199697749 
loop_ 
_atom_site_label 
_atom_site_type_symbol 
_atom_site_fract_x 
_atom_site_fract_y 
_atom_site_fract_z 
_atom_site_charge 
In1        In  0.67206094  0.68004225  0.22047022     1.36900
C2          C  0.75076340  0.67001715  0.23927868     0.76800
O3          O  0.69136683  0.70661191  0.13930779    -0.61700
O4          O  0.63064643  0.71590248  0.17133057    -0.52600
C5          C  0.62808625  0.61932021  0.22183181     0.69400
O6          O  0.64900808  0.62925812  0.17840995    -0.47500
C7          C  0.66263568  0.73947640  0.28161433     0.74100
O8          O  0.73594411  0.66876356  0.18851218    -0.59300
O9          O  0.63263076  0.71919180  0.27254723    -0.49400
O10         O  0.72458050  0.66902722  0.28042479    -0.55700
C11         C  0.66021530  0.72657118  0.14079275     0.84300
O12         O  0.63038206  0.64009088  0.26529894    -0.57600
O13         O  0.69684280  0.72685121  0.26707760    -0.60900
In14       In  0.65936341  0.82191637  0.05787282     1.36900
C15         C  0.72575941  0.86074587  0.07811040     0.76800
O16         O  0.63013097  0.78255722  0.11762427    -0.61700
O17         O  0.69205271  0.77413806  0.09138876    -0.52600
C18         C  0.59416924  0.86323191  0.06690109     0.69400
O19         O  0.61263971  0.85854956  0.01859710    -0.47500
C20         C  0.65617285  0.77476377  0.97490577     0.74100
O21         O  0.70449055  0.84737958  0.11849500    -0.59300
O22         O  0.68693235  0.79448341  0.98133694    -0.49400
O23         O  0.71081801  0.85729954  0.02768819    -0.55700
C24         C  0.66052159  0.76174458  0.11528894     0.84300
O25         O  0.61168420  0.84930778  0.10989851    -0.57600
O26         O  0.62398299  0.78494077  0.00075098    -0.60900
In27       In  0.34654631  0.67952604  0.22984375     1.36900
C28         C  0.26787817  0.66982393  0.24754239     0.76800
O29         O  0.32400220  0.72167353  0.29070772    -0.61700
O30         O  0.38810620  0.71868936  0.27486264    -0.52600
C31         C  0.39052985  0.61836987  0.22804247     0.69400
O32         O  0.38806807  0.63857360  0.27221153    -0.47500
C33         C  0.35695133  0.72839925  0.15149045     0.74100
O34         O  0.28362526  0.66888580  0.19692542    -0.59300
O35         O  0.38685574  0.71555699  0.17856205    -0.49400
O36         O  0.29319133  0.66842775  0.28911848    -0.55700
C37         C  0.35817515  0.73646013  0.29499487     0.84300
O38         O  0.36959382  0.62897672  0.18543714    -0.57600
O39         O  0.32454800  0.71053942  0.15377733    -0.60900
In40       In  0.36190634  0.82235836  0.06430085     1.36900
C41         C  0.29544097  0.86155976  0.08275318     0.76800
O42         O  0.39628403  0.78295756  0.00934161    -0.61700
O43         O  0.33397965  0.79507523  0.98918702    -0.52600
C44         C  0.42583485  0.86442916  0.06829924     0.69400
O45         O  0.40723597  0.85805716  0.02126653    -0.47500
C46         C  0.35847603  0.76323092  0.12455282     0.74100
O47         O  0.31606521  0.84859541  0.12395749    -0.59300
O48         O  0.32705227  0.77792390  0.10413879    -0.49400
O49         O  0.31128831  0.85770271  0.03254192    -0.55700
C50         C  0.36390824  0.77379368  0.98422905     0.84300
O51         O  0.40921882  0.85157522  0.11330552    -0.57600
O52         O  0.39075593  0.78132810  0.12155012    -0.60900
In53       In  0.17388201  0.86337023  0.10440047     1.36900
C54         C  0.25277728  0.87320175  0.09136933     0.76800
O55         O  0.19469671  0.83146246  0.17963024    -0.61700
O56         O  0.13283624  0.82607487  0.15284708    -0.52600
C57         C  0.12934044  0.92425729  0.10399772     0.69400
O58         O  0.13435223  0.90486953  0.05922199    -0.47500
C59         C  0.16365563  0.80700186  0.03893716     0.74100
O60         O  0.23596297  0.87318847  0.14132472    -0.59300
O61         O  0.13337242  0.82524713  0.05656579    -0.49400
O62         O  0.22845191  0.87593050  0.04880827    -0.55700
C63         C  0.16263979  0.81309412  0.18004868     0.84300
O64         O  0.14788123  0.91283733  0.14833495    -0.57600
O65         O  0.19796747  0.82129305  0.04493319    -0.60900
In66       In  0.15917448  0.72132742  0.27205938     1.36900
C67         C  0.22510958  0.68099640  0.25694270     0.76800
O68         O  0.12999138  0.75902458  0.20866731    -0.61700
O69         O  0.19310662  0.76458163  0.22847850    -0.52600
C70         C  0.09472252  0.67996817  0.28035270     0.69400
O71         O  0.11526933  0.68918074  0.32447676    -0.47500
C72         C  0.15854753  0.77315602  0.34735888     0.74100
O73         O  0.20258171  0.69013014  0.21499311    -0.59300
O74         O  0.18991426  0.75415370  0.33794026    -0.49400
O75         O  0.21102751  0.68861748  0.30709428    -0.55700
C76         C  0.16161939  0.77805512  0.20638356     0.84300
O77         O  0.10950394  0.68971805  0.23200258    -0.57600
O78         O  0.12541038  0.76116941  0.32794499    -0.60900
In79       In  0.84701381  0.86233827  0.10508633     1.36900
C80         C  0.76809722  0.87255932  0.08808754     0.76800
O81         O  0.82277548  0.81876610  0.05095246    -0.61700
O82         O  0.88738637  0.82545950  0.05114299    -0.52600
C83         C  0.89161222  0.92265135  0.10805984     0.69400
O84         O  0.88722214  0.90404550  0.06242947    -0.47500
C85         C  0.85802449  0.81153655  0.17936637     0.74100
O86         O  0.79385672  0.87500689  0.04664460    -0.59300
O87         O  0.88750672  0.82293305  0.14947662    -0.49400
O88         O  0.78338726  0.87289314  0.13861659    -0.55700
C89         C  0.85730916  0.80600888  0.03850136     0.84300
O90         O  0.87263260  0.91068311  0.15187566    -0.57600
O91         O  0.82728504  0.83195491  0.18296663    -0.60900
In92       In  0.86100747  0.71824258  0.26739084     1.36900
C93         C  0.79349472  0.68061544  0.24945057     0.76800
O94         O  0.89711768  0.75986323  0.31443696    -0.61700
O95         O  0.83581964  0.74889593  0.34186757    -0.52600
C96         C  0.92573273  0.67665889  0.28078744     0.69400
O97         O  0.91235731  0.68510845  0.23111311    -0.47500
C98         C  0.85791742  0.77600820  0.20412809     0.74100
O99         O  0.80654559  0.68776990  0.29988488    -0.59300
O100        O  0.82748931  0.76481376  0.23213986    -0.49400
O101        O  0.81737898  0.68917003  0.20827465    -0.55700
C102        C  0.86605479  0.76966687  0.34338212     0.81500
O103        O  0.90286424  0.68604263  0.32292593    -0.57600
O104        O  0.88764808  0.75436832  0.19940504    -0.60900
C105        C  0.60284044  0.58531010  0.22200233     0.85700
C106        C  0.60984152  0.56157211  0.16763774    -0.54600
C107        C  0.58735679  0.53130866  0.16610919     0.08600
C108        C  0.56038397  0.52684382  0.22304939     0.19500
C109        C  0.55606120  0.59140606  0.22384185    -0.55300
C110        C  0.53310505  0.56076571  0.22407710     0.08700
C111        C  0.61126793  0.56189867  0.27521528    -0.54800
C112        C  0.58830520  0.53193367  0.27830040     0.09300
H113        H  0.62968788  0.56897400  0.13155928     0.13800
H114        H  0.54366479  0.50147886  0.22355905    -0.00500
H115        H  0.54293612  0.61788097  0.22454264     0.14100
H116        H  0.63198486  0.56966057  0.30978280     0.13900
C117        C  0.41637425  0.58448856  0.22648302     0.85700
C118        C  0.40916671  0.56072984  0.27967277    -0.54600
C119        C  0.43290909  0.53086629  0.28114026     0.08600
C120        C  0.46043564  0.52636814  0.22453469     0.19500
C121        C  0.46294339  0.59093228  0.22618170    -0.55300
C122        C  0.48677077  0.56051412  0.22497294     0.08700
C123        C  0.40930666  0.56111577  0.17216613    -0.54800
C124        C  0.43265578  0.53109843  0.16900924     0.09300
H125        H  0.38870935  0.56819272  0.31536619     0.13800
H126        H  0.47786339  0.50111304  0.22368073    -0.00500
H127        H  0.47529762  0.61749496  0.22670170     0.14100
H128        H  0.38881275  0.56859509  0.13725217     0.13900
C129        C  0.60299039  0.45360144  0.05474373     0.85700
C130        C  0.61049774  0.47734365  0.10857612    -0.54600
C131        C  0.58736949  0.50761427  0.11145104     0.08600
C132        C  0.55987537  0.51232715  0.05575312     0.19500
C133        C  0.55635714  0.44773512  0.05535903    -0.55300
C134        C  0.53305745  0.47847140  0.05569675     0.08700
C135        C  0.61034693  0.47700728  0.00089501    -0.54800
C136        C  0.58750988  0.50741947  0.99940756     0.09300
H137        H  0.63091106  0.46969396  0.14349881     0.13800
H138        H  0.54278766  0.53775713  0.05616547    -0.00500
H139        H  0.54360998  0.42134641  0.05535353     0.14100
H140        H  0.63072071  0.46930655  0.96519681     0.13900
C141        C  0.41686284  0.45494865  0.05625679     0.85700
C142        C  0.40932501  0.47886700  0.00328890    -0.54600
C143        C  0.43223816  0.50887629  0.00188828     0.08600
C144        C  0.45995736  0.51296770  0.05757208     0.19500
C145        C  0.46348411  0.44841044  0.05548146    -0.55300
C146        C  0.48678402  0.47879296  0.05606709     0.08700
C147        C  0.40929084  0.47823396  0.11080065    -0.54800
C148        C  0.43256349  0.50803763  0.11385077     0.09300
H149        H  0.38893643  0.47175606  0.96797817     0.13800
H150        H  0.47700393  0.53817761  0.05820798    -0.00500
H151        H  0.47621679  0.42184403  0.05445565     0.14100
H152        H  0.38883166  0.47058863  0.14598268     0.13900
C153        C  0.91606538  0.08654580  0.27960465     0.85700
C154        C  0.90949461  0.06351938  0.33385221    -0.54600
C155        C  0.93283456  0.03351854  0.33541569     0.08600
C156        C  0.96011262  0.02851744  0.27864154     0.19500
C157        C  0.96250635  0.09309082  0.27795583    -0.55300
C158        C  0.98633222  0.06275217  0.27763684     0.08700
C159        C  0.90836737  0.06247804  0.22631787    -0.54800
C160        C  0.93210962  0.03262916  0.22329732     0.09300
H161        H  0.88919940  0.07113837  0.36970416     0.13800
H162        H  0.97753226  0.00326865  0.27835668    -0.00500
H163        H  0.97483643  0.11976030  0.27723942     0.14100
H164        H  0.88759606  0.06975096  0.19159843     0.13900
C165        C  0.10222381  0.08757037  0.27413395     0.85700
C166        C  0.10950307  0.06387632  0.22014316    -0.54600
C167        C  0.08654578  0.03396174  0.21819386     0.08600
C168        C  0.05969690  0.02919995  0.27504996     0.19500
C169        C  0.05548976  0.09374445  0.27552169    -0.55300
C170        C  0.03253713  0.06311830  0.27619961     0.08700
C171        C  0.11033388  0.06416250  0.32769711    -0.54800
C172        C  0.08759805  0.03403160  0.33037905     0.09300
H173        H  0.12948266  0.07138262  0.18430091     0.13800
H174        H  0.04300314  0.00382566  0.27518291    -0.00500
H175        H  0.04236536  0.12031311  0.27604388     0.14100
H176        H  0.13093717  0.07176087  0.36246971     0.13900
C177        C  0.91679888  0.95665323  0.10958480     0.85700
C178        C  0.90776140  0.98123407  0.05799050    -0.54600
C179        C  0.93069515  0.01124570  0.05606473     0.08600
C180        C  0.95909186  0.01518700  0.11098795     0.19500
C181        C  0.96356050  0.95065589  0.10632553    -0.55300
C182        C  0.98641313  0.98135033  0.10740259     0.08700
C183        C  0.91029917  0.97914808  0.16539953    -0.54800
C184        C  0.93268597  0.00943025  0.16814200     0.09300
H185        H  0.88691799  0.97408466  0.02322699     0.13800
H186        H  0.97567518  0.04061623  0.11165132    -0.00500
H187        H  0.97673635  0.92425770  0.10374835     0.14100
H188        H  0.89058563  0.97106503  0.20119889     0.13900
C189        C  0.10320238  0.95809598  0.10477533     0.85700
C190        C  0.10966660  0.98106340  0.15967857    -0.54600
C191        C  0.08613284  0.01090128  0.16320623     0.08600
C192        C  0.05876092  0.01604877  0.10751430     0.19500
C193        C  0.05668440  0.95143769  0.10413430    -0.55300
C194        C  0.03269212  0.98176485  0.10588926     0.08700
C195        C  0.11060046  0.98247220  0.05217848    -0.54800
C196        C  0.08673305  0.01238987  0.05130174     0.09300
H197        H  0.13017699  0.97356860  0.19455953     0.13800
H198        H  0.04120753  0.04123123  0.10879090    -0.00500
H199        H  0.04448832  0.92484997  0.10307667     0.14100
H200        H  0.13124706  0.97541247  0.01650689     0.13900
In201      In  0.67312298  0.35845580  0.05511727     1.36900
C202        C  0.75081103  0.36964748  0.07897602     0.76800
O203        O  0.69738951  0.30849584  0.09317648    -0.61700
O204        O  0.63546810  0.32247051  0.11221768    -0.52600
C205        C  0.62842178  0.41931654  0.05487428     0.69400
O206        O  0.64961285  0.40852448  0.01169830    -0.47500
C207        C  0.65955508  0.31185593  0.97472803     0.74100
O208        O  0.72343746  0.37040887  0.11848390    -0.59300
O209        O  0.63066987  0.32308051  0.00676318    -0.49400
O210        O  0.73750924  0.37012919  0.02738281    -0.55700
C211        C  0.66368288  0.29928393  0.11449262     0.84300
O212        O  0.63056485  0.39916170  0.09854726    -0.57600
O213        O  0.69096768  0.33111721  0.97286894    -0.60900
In214      In  0.65929324  0.21819428  0.22377179     1.36900
C215        C  0.72603128  0.18054796  0.24572901     0.76800
O216        O  0.62613995  0.25584000  0.16638747    -0.61700
O217        O  0.68908245  0.24400801  0.14826572    -0.52600
C218        C  0.59545954  0.17637825  0.22962506     0.69400
O219        O  0.61290764  0.18889986  0.27415791    -0.47500
C220        C  0.65821463  0.27901913  0.28081144     0.74100
O221        O  0.71215098  0.18347633  0.19466331    -0.59300
O222        O  0.69052789  0.26536401  0.26018786    -0.49400
O223        O  0.70341694  0.19352809  0.28566942    -0.55700
C224        C  0.65899218  0.26485888  0.14180029     0.84300
O225        O  0.61350072  0.18255624  0.18175482    -0.57600
O226        O  0.62742086  0.25903088  0.28075849    -0.60900
In227      In  0.34858676  0.36032707  0.05590480     1.36900
C228        C  0.27020357  0.37238974  0.07647488     0.76800
O229        O  0.32708583  0.33024084  0.97886517    -0.61700
O230        O  0.38957392  0.32429107  0.00322299    -0.52600
C231        C  0.39182606  0.42101963  0.05619239     0.69400
O232        O  0.38995486  0.40058448  0.09947649    -0.47500
C233        C  0.35944172  0.30256005  0.11789512     0.74100
O234        O  0.28503788  0.37203038  0.02527859    -0.59300
O235        O  0.38966509  0.32063404  0.10113016    -0.49400
O236        O  0.29636391  0.37313938  0.11700671    -0.55700
C237        C  0.35937813  0.31173983  0.97649446     0.84300
O238        O  0.37105238  0.41063724  0.01311645    -0.57600
O239        O  0.32515247  0.31721696  0.11172039    -0.60900
In240      In  0.36136092  0.21846976  0.22215138     1.36900
C241        C  0.29435646  0.18045080  0.23933345     0.76800
O242        O  0.39308836  0.25955132  0.27629849    -0.61700
O243        O  0.32841912  0.26266381  0.26804241    -0.52600
C244        C  0.42623824  0.17710893  0.23114771     0.69400
O245        O  0.40876863  0.18163437  0.18254988    -0.47500
C246        C  0.36266295  0.26749240  0.14355588     0.74100
O247        O  0.31613563  0.19182899  0.28069427    -0.59300
O248        O  0.33129609  0.24895272  0.15257873    -0.49400
O249        O  0.30950139  0.18474691  0.18886894    -0.55700
C250        C  0.36082695  0.27752661  0.28409228     0.84300
O251        O  0.40742185  0.19056351  0.27430416    -0.57600
O252        O  0.39562000  0.25517506  0.16327547    -0.60900
In253      In  0.17270037  0.18121882  0.26800407     1.36900
C254        C  0.25145297  0.17017552  0.24927085     0.76800
O255        O  0.19472774  0.21995086  0.20288243    -0.61700
O256        O  0.13182265  0.22259186  0.22707094    -0.52600
C257        C  0.12755834  0.12137526  0.27218749     0.69400
O258        O  0.14899173  0.13227506  0.31417677    -0.47500
C259        C  0.16486813  0.23134059  0.34598779     0.74100
O260        O  0.22584587  0.16847048  0.20806751    -0.59300
O261        O  0.13412547  0.21919557  0.32007649    -0.49400
O262        O  0.23593759  0.17021668  0.30007068    -0.55700
C263        C  0.16191797  0.23753663  0.20308540     0.84300
O264        O  0.12979619  0.14077397  0.22765670    -0.57600
O265        O  0.19680693  0.21245954  0.34265608    -0.60900
In266      In  0.16039179  0.32590718  0.10603039     1.36900
C267        C  0.22708731  0.36361684  0.08775810     0.76800
O268        O  0.12721725  0.28785832  0.16407571    -0.61700
O269        O  0.19237055  0.28959922  0.16600774    -0.52600
C270        C  0.09562256  0.36698429  0.11865760     0.69400
O271        O  0.10949270  0.35771268  0.06906313    -0.47500
C272        C  0.15833822  0.26965144  0.03892415     0.74100
O273        O  0.21366327  0.35755558  0.13860239    -0.59300
O274        O  0.19117905  0.28217040  0.05797973    -0.49400
O275        O  0.20329505  0.35495241  0.04688568    -0.55700
C276        C  0.16017691  0.27287545  0.17826076     0.84300
O277        O  0.11809772  0.35872623  0.16129252    -0.57600
O278        O  0.12727021  0.28958732  0.04445714    -0.60900
In279      In  0.84607961  0.18061543  0.27964594     1.36900
C280        C  0.76847662  0.16988266  0.25724668     0.76800
O281        O  0.82824721  0.20901154  0.36081121    -0.61700
O282        O  0.88886764  0.21608076  0.32743956    -0.52600
C283        C  0.89035017  0.12030542  0.27961181     0.69400
O284        O  0.87064881  0.13164407  0.32381382    -0.47500
C285        C  0.85629954  0.23859534  0.21862349     0.74100
O286        O  0.79537195  0.16881940  0.21716006    -0.59300
O287        O  0.88404071  0.21499108  0.22069322    -0.49400
O288        O  0.78218798  0.16889667  0.30858801    -0.55700
C289        C  0.85982339  0.22805137  0.35848606     0.84300
O290        O  0.88673596  0.13956520  0.23512386    -0.57600
O291        O  0.82261271  0.23029065  0.24098069    -0.60900
In292      In  0.86034659  0.32231821  0.11369390     1.36900
C293        C  0.79360791  0.36015530  0.09152046     0.76800
O294        O  0.88838225  0.28358046  0.04987927    -0.61700
O295        O  0.82644342  0.27649581  0.07694247    -0.52600
C296        C  0.92582137  0.36220056  0.12428294     0.69400
O297        O  0.90206438  0.35597867  0.16663935    -0.47500
C298        C  0.86147293  0.27278414  0.19124621     0.74100
O299        O  0.81825482  0.35012042  0.05170021    -0.59300
O300        O  0.83247444  0.29514591  0.18901915    -0.49400
O301        O  0.80596090  0.35506092  0.14285484    -0.55700
C302        C  0.85756433  0.26353659  0.05183062     0.84300
O303        O  0.91324991  0.35132897  0.07530181    -0.57600
O304        O  0.89339257  0.28050137  0.16324685    -0.60900
C305        C  0.98724787  0.39077056  0.08211505    -0.10000
C306        C  0.96730369  0.37701637  0.13135221     0.06200
C307        C  0.99045900  0.37041890  0.18195643    -0.03700
C308        C  0.03312990  0.37233563  0.17917423    -0.08200
C309        C  0.05336087  0.38064364  0.12688436     0.05300
C310        C  0.02996818  0.39289578  0.07965634    -0.03200
Br311      Br  0.05459489  0.41028570  0.00933596    -0.02900
H312        H  0.96979677  0.39730485  0.04368539     0.09200
H313        H  0.05053703  0.36304849  0.21612107     0.07300
Br314      Br  0.96709264  0.35262496  0.25299101    -0.03300
C315        C  0.53293100  0.16485378  0.28681007    -0.10000
C316        C  0.55413344  0.16079165  0.23366791     0.06200
C317        C  0.53216940  0.15005111  0.18399457    -0.03700
C318        C  0.48926871  0.15114193  0.18552949    -0.08200
C319        C  0.46806153  0.16193875  0.23635789     0.05300
C320        C  0.49027263  0.16527491  0.28877778    -0.03200
Br321      Br  0.46542681  0.17456506  0.36378706    -0.02900
H322        H  0.54932257  0.17135248  0.32625182     0.09200
H323        H  0.47262230  0.14599592  0.14592728     0.07300
Br324      Br  0.55889146  0.13524282  0.11282048    -0.03300
C325        C  0.98927923  0.65112075  0.23793118    -0.10000
C326        C  0.96757751  0.66186682  0.28824798     0.06200
C327        C  0.98960440  0.66687823  0.34052905    -0.03700
C328        C  0.03240878  0.66766810  0.33860666    -0.08200
C329        C  0.05372276  0.66374338  0.28548292     0.05300
C330        C  0.03202373  0.65215100  0.23597455    -0.03200
Br331      Br  0.05837931  0.64060489  0.16300770    -0.02900
H332        H  0.97292015  0.64530551  0.19807575     0.09200
H333        H  0.04865879  0.67538501  0.37773789     0.07300
Br334      Br  0.96391548  0.67782087  0.41421471    -0.03300
C335        C  0.53192210  0.88867731  0.02078519    -0.10000
C336        C  0.55274249  0.87936173  0.07182540     0.06200
C337        C  0.53038487  0.87843604  0.12472631    -0.03700
C338        C  0.48775107  0.87911136  0.12361943    -0.08200
C339        C  0.46681585  0.88079936  0.07063222     0.05300
C340        C  0.48902354  0.88971225  0.01990990    -0.03200
Br341      Br  0.46620502  0.90243993  0.28815093    -0.02900
H342        H  0.54877312  0.89255679  0.98080042     0.09200
H343        H  0.47113248  0.87436808  0.16383343     0.07300
Br344      Br  0.55533638  0.87226703  0.19935745    -0.03300
In345      In  0.67412374  0.67925427  0.55569327     1.36900
C346        C  0.75263423  0.66887948  0.57410304     0.76800
O347        O  0.70059591  0.70924592  0.48120863    -0.61700
O348        O  0.63672939  0.71439096  0.49929616    -0.52600
C349        C  0.62929850  0.61909679  0.55791181     0.69400
O350        O  0.64911949  0.62944904  0.51372414    -0.47500
C351        C  0.66107224  0.73749289  0.61699518     0.74100
O352        O  0.73774312  0.66714907  0.52334076    -0.59300
O353        O  0.63148590  0.72146313  0.59390675    -0.49400
O354        O  0.72658416  0.66846813  0.61540173    -0.55700
C355        C  0.66814237  0.72704911  0.47527726     0.84300
O356        O  0.63301753  0.63925834  0.60185877    -0.57600
O357        O  0.69423784  0.72046821  0.61757850    -0.60900
In358      In  0.66416122  0.82195256  0.39076140     1.36900
C359        C  0.73062305  0.86026421  0.41010805     0.76800
O360        O  0.63643395  0.78166996  0.44951546    -0.61700
O361        O  0.69892584  0.77509275  0.42493895    -0.52600
C362        C  0.59833538  0.86234917  0.40397893     0.69400
O363        O  0.61710000  0.86013731  0.35540609    -0.47500
C364        C  0.65962544  0.77445107  0.30881330     0.74100
O365        O  0.70930897  0.84716809  0.45067255    -0.59300
O366        O  0.69080543  0.79372510  0.31451860    -0.49400
O367        O  0.71544941  0.85724228  0.35973082    -0.55700
C368        C  0.66772224  0.76189945  0.44854694     0.84300
O369        O  0.61623645  0.84704607  0.44532784    -0.57600
O370        O  0.62763077  0.78557349  0.33407820    -0.60900
In371      In  0.35031994  0.68143244  0.56587588     1.36900
C372        C  0.27136984  0.67158425  0.58216202     0.76800
O373        O  0.32799052  0.72373438  0.62580070    -0.61700
O374        O  0.39217560  0.72096136  0.61052465    -0.52600
C375        C  0.39278994  0.61984718  0.56301759     0.69400
O376        O  0.39114175  0.63990361  0.60749925    -0.47500
C377        C  0.36068957  0.72965090  0.48772306     0.74100
O378        O  0.28755864  0.67130228  0.53182136    -0.59300
O379        O  0.39111397  0.71607302  0.51270432    -0.49400
O380        O  0.29641249  0.67007821  0.62411423    -0.55700
C381        C  0.36200095  0.73877169  0.62983663     0.84300
O382        O  0.37212531  0.63103221  0.52060678    -0.57600
O383        O  0.32784041  0.71258240  0.49155566    -0.60900
In384      In  0.36271611  0.82238176  0.39929453     1.36900
C385        C  0.29625808  0.86198764  0.41642392     0.76800
O386        O  0.39522622  0.78394410  0.33906446    -0.61700
O387        O  0.33057779  0.79048754  0.33259329    -0.52600
C388        C  0.42798602  0.86301037  0.40458500     0.69400
O389        O  0.41072404  0.85578350  0.35668977    -0.47500
C390        C  0.36181615  0.76446529  0.46142749     0.74100
O391        O  0.31748521  0.85022100  0.45794139    -0.59300
O392        O  0.32962876  0.77959422  0.44472607    -0.49400
O393        O  0.31187308  0.85735641  0.36612587    -0.55700
C394        C  0.36177181  0.77158615  0.32148578     0.84300
O395        O  0.40904101  0.85235489  0.44935261    -0.57600
O396        O  0.39421047  0.78198667  0.45493487    -0.60900
In397      In  0.17436653  0.86320680  0.44147225     1.36900
C398        C  0.25330978  0.87297991  0.42549595     0.76800
O399        O  0.19754020  0.83087106  0.51518137    -0.61700
O400        O  0.13469313  0.82654350  0.49296727    -0.52600
C401        C  0.13009872  0.92379231  0.44066135     0.69400
O402        O  0.13372422  0.90357605  0.39673030    -0.47500
C403        C  0.16188384  0.80782608  0.37463311     0.74100
O404        O  0.23709357  0.87378037  0.47587145    -0.59300
O405        O  0.13213876  0.82440821  0.39771461    -0.49400
O406        O  0.22833611  0.87448526  0.38356915    -0.55700
C407        C  0.16514898  0.81304679  0.51794169     0.84300
O408        O  0.14984257  0.91333172  0.48454412    -0.57600
O409        O  0.19584393  0.82312422  0.37733553    -0.60900
In410      In  0.16053804  0.72009335  0.60711998     1.36900
C411        C  0.22809064  0.68159749  0.59113343     0.76800
O412        O  0.13293204  0.75832704  0.54347961    -0.61700
O413        O  0.19512649  0.76471188  0.56780563    -0.52600
C414        C  0.09560241  0.67873436  0.61343943     0.69400
O415        O  0.11741179  0.68566801  0.65741649    -0.47500
C416        C  0.15698882  0.77140394  0.68320798     0.74100
O417        O  0.20548578  0.69074884  0.54922083    -0.59300
O418        O  0.18834320  0.75188523  0.67718980    -0.49400
O419        O  0.21326269  0.68794374  0.64129772    -0.55700
C420        C  0.16416259  0.77789615  0.54386251     0.84300
O421        O  0.10954073  0.69030354  0.56566780    -0.57600
O422        O  0.12475321  0.75982656  0.66050558    -0.60900
In423      In  0.85170575  0.86105257  0.43803362     1.36900
C424        C  0.77311545  0.87126725  0.42015411     0.76800
O425        O  0.82818066  0.81685655  0.38448490    -0.61700
O426        O  0.89264914  0.82386115  0.38434419    -0.52600
C427        C  0.89404343  0.92224909  0.44263822     0.69400
O428        O  0.89349888  0.90219413  0.39817793    -0.47500
C429        C  0.86223153  0.81190260  0.51421610     0.74100
O430        O  0.79901947  0.87391197  0.37888147    -0.59300
O431        O  0.89242184  0.82356666  0.48607219    -0.49400
O432        O  0.78814805  0.87085419  0.47077512    -0.55700
C433        C  0.86270754  0.80430818  0.37143647     0.84300
O434        O  0.87242915  0.91122465  0.48456766    -0.57600
O435        O  0.83088516  0.83158950  0.51529205    -0.60900
In436      In  0.86067664  0.71921420  0.60250632     1.36900
C437        C  0.79523023  0.67966119  0.58410579     0.76800
O438        O  0.89320622  0.75714340  0.66097913    -0.61700
O439        O  0.82807161  0.75379924  0.66638608    -0.52600
C440        C  0.92628882  0.67888748  0.61449529     0.69400
O441        O  0.91233686  0.68724159  0.56503092    -0.47500
C442        C  0.86156839  0.77657743  0.53906076     0.74100
O443        O  0.80852641  0.68608445  0.63472173    -0.59300
O444        O  0.82921482  0.76433076  0.56059561    -0.49400
O445        O  0.81836629  0.68951419  0.54289758    -0.55700
C446        C  0.86000748  0.77107422  0.67794442     0.81500
O447        O  0.90390228  0.68825734  0.65728384    -0.57600
O448        O  0.89226047  0.75598651  0.54012601    -0.60900
C449        C  0.60365656  0.58532665  0.55793020     0.85700
C450        C  0.61098401  0.56205353  0.50328426    -0.54600
C451        C  0.58817011  0.53213024  0.50044405     0.08600
C452        C  0.56064363  0.52715206  0.55665138     0.19500
C453        C  0.55693930  0.59170994  0.55907720    -0.55300
C454        C  0.53374159  0.56117724  0.55840811     0.08700
C455        C  0.61125793  0.56134555  0.61085535    -0.54800
C456        C  0.58793135  0.53146592  0.61258574     0.09300
H457        H  0.63137682  0.56952021  0.46785687     0.13800
H458        H  0.54370229  0.50190110  0.55597834    -0.00500
H459        H  0.54404610  0.61833733  0.56036946     0.14100
H460        H  0.63153289  0.56869199  0.64618527     0.13900
C461        C  0.41762182  0.58554640  0.56086595     0.85700
C462        C  0.40957912  0.56166424  0.61360708    -0.54600
C463        C  0.43268147  0.53146300  0.61502485     0.08600
C464        C  0.46080223  0.52700460  0.55890552     0.19500
C465        C  0.46410187  0.59154022  0.56124079    -0.55300
C466        C  0.48751139  0.56101635  0.55982765     0.08700
C467        C  0.41061189  0.56243570  0.50602019    -0.54800
C468        C  0.43362987  0.53213293  0.50290807     0.09300
H469        H  0.38896514  0.56924310  0.64906686     0.13800
H470        H  0.47796100  0.50161563  0.55818443    -0.00500
H471        H  0.47677773  0.61807804  0.56194914     0.14100
H472        H  0.39041217  0.57025185  0.47096865     0.13900
C473        C  0.60497715  0.45567014  0.38821244     0.85700
C474        C  0.61248888  0.47925918  0.44203705    -0.54600
C475        C  0.58881221  0.50914277  0.44523768     0.08600
C476        C  0.56113066  0.51380176  0.38965819     0.19500
C477        C  0.55852875  0.44929297  0.38920302    -0.55300
C478        C  0.53481126  0.47970094  0.38993684     0.08700
C479        C  0.61200296  0.47905924  0.33450538    -0.54800
C480        C  0.58865934  0.50905490  0.33300133     0.09300
H481        H  0.63304237  0.47167343  0.47684998     0.13800
H482        H  0.54369872  0.53905067  0.39029749    -0.00500
H483        H  0.54617407  0.42265272  0.38927978     0.14100
H484        H  0.63237023  0.47154314  0.29867970     0.13900
C485        C  0.41925482  0.45455491  0.39234884     0.85700
C486        C  0.41148878  0.47756279  0.33830284    -0.54600
C487        C  0.43379150  0.50784990  0.33569017     0.08600
C488        C  0.46116860  0.51324470  0.39146119     0.19500
C489        C  0.46592728  0.44869811  0.39202485    -0.55300
C490        C  0.48862037  0.47941297  0.39126656     0.08700
C491        C  0.41112588  0.47850463  0.44594150    -0.54800
C492        C  0.43366810  0.50875615  0.44791441     0.09300
H493        H  0.39131833  0.46966180  0.30318411     0.13800
H494        H  0.47777767  0.53867018  0.39110523    -0.00500
H495        H  0.47917895  0.42220487  0.39203071     0.14100
H496        H  0.39092003  0.47093558  0.48146667     0.13900
C497        C  0.91719203  0.08849484  0.61188836     0.85700
C498        C  0.91006886  0.06568872  0.66645165    -0.54600
C499        C  0.93259114  0.03514645  0.66835091     0.08600
C500        C  0.96006509  0.02973570  0.61177762     0.19500
C501        C  0.96369443  0.09430318  0.61017835    -0.55300
C502        C  0.98693225  0.06364779  0.61021136     0.08700
C503        C  0.90909252  0.06424821  0.55882298    -0.54800
C504        C  0.93219332  0.03392215  0.55640616     0.09300
H505        H  0.88975656  0.07371109  0.70203985     0.13800
H506        H  0.97717567  0.00431363  0.61175879    -0.00500
H507        H  0.97642885  0.12069229  0.60894673     0.14100
H508        H  0.88862157  0.07171371  0.52386657     0.13900
C509        C  0.10304574  0.08772076  0.60850005     0.85700
C510        C  0.11113901  0.06393915  0.55485883    -0.54600
C511        C  0.08787670  0.03421020  0.55214891     0.08600
C512        C  0.06006906  0.02960292  0.60819250     0.19500
C513        C  0.05637697  0.09414109  0.60820439    -0.55300
C514        C  0.03316830  0.06363725  0.60856107     0.08700
C515        C  0.11005226  0.06439421  0.66243013    -0.54800
C516        C  0.08713306  0.03435768  0.66443159     0.09300
H517        H  0.13179925  0.07128899  0.51971523     0.13800
H518        H  0.04307104  0.00436494  0.60781362    -0.00500
H519        H  0.04358531  0.12070867  0.60837866     0.14100
H520        H  0.13005407  0.07197822  0.69791878     0.13900
C521        C  0.91837270  0.95656307  0.44470153     0.85700
C522        C  0.91023490  0.98025622  0.39177575    -0.54600
C523        C  0.93287818  0.01039887  0.38972026     0.08600
C524        C  0.96034707  0.01522577  0.44538737     0.19500
C525        C  0.96506616  0.95071500  0.44371811    -0.55300
C526        C  0.98779710  0.98138654  0.44396578     0.08700
C527        C  0.91054341  0.97988253  0.49934789    -0.54800
C528        C  0.93284442  0.01029595  0.50171608     0.09300
H529        H  0.88997653  0.97255953  0.35661134     0.13800
H530        H  0.97697603  0.04064574  0.44564251    -0.00500
H531        H  0.97830942  0.92425557  0.44258135     0.14100
H532        H  0.89031314  0.97214608  0.53478073     0.13900
C533        C  0.10432517  0.95758079  0.44067794     0.85700
C534        C  0.11146419  0.98130655  0.49440990    -0.54600
C535        C  0.08803548  0.01120058  0.49712895     0.08600
C536        C  0.06036769  0.01570322  0.44152463     0.19500
C537        C  0.05781161  0.95114342  0.44119073    -0.55300
C538        C  0.03404312  0.98159788  0.44197988     0.08700
C539        C  0.11155413  0.98090312  0.38688441    -0.54800
C540        C  0.08797230  0.01089258  0.38495804     0.09300
H541        H  0.13196003  0.97409674  0.52947620     0.13800
H542        H  0.04291212  0.04094847  0.44197044    -0.00500
H543        H  0.04549547  0.92456054  0.44158456     0.14100
H544        H  0.13205438  0.97317242  0.35138873     0.13900
In545      In  0.67284544  0.36066369  0.38563811     1.36900
C546        C  0.75094928  0.37015206  0.40823432     0.76800
O547        O  0.69565615  0.31029742  0.42188985    -0.61700
O548        O  0.63478733  0.32615964  0.44455572    -0.52600
C549        C  0.63022066  0.42171210  0.38764129     0.69400
O550        O  0.65117223  0.41131395  0.34402947    -0.47500
C551        C  0.65798013  0.31469517  0.30540162     0.74100
O552        O  0.72400202  0.37071382  0.44830775    -0.59300
O553        O  0.62908627  0.32628294  0.33711888    -0.49400
O554        O  0.73715696  0.37155656  0.35699161    -0.55700
C555        C  0.66224134  0.30223094  0.44528502     0.84300
O556        O  0.63181973  0.40115009  0.43075661    -0.57600
O557        O  0.68942896  0.33383986  0.30299233    -0.60900
In558      In  0.66106657  0.22091759  0.55396578     1.36900
C559        C  0.72874659  0.18397239  0.57485637     0.76800
O560        O  0.62597714  0.26037799  0.50200413    -0.61700
O561        O  0.68685217  0.24612136  0.47542506    -0.52600
C562        C  0.59630336  0.18038184  0.56251278     0.69400
O563        O  0.61532057  0.19228165  0.60610124    -0.47500
C564        C  0.66198602  0.28081283  0.61301067     0.74100
O565        O  0.71545066  0.18807392  0.52367802    -0.59300
O566        O  0.69391189  0.26777765  0.59010582    -0.49400
O567        O  0.70517478  0.19532646  0.61494718    -0.55700
C568        C  0.65749333  0.26811547  0.47311345     0.84300
O569        O  0.61374682  0.18562130  0.51385995    -0.57600
O570        O  0.63125953  0.26083966  0.61311509    -0.60900
In571      In  0.35064314  0.36005890  0.39294379     1.36900
C572        C  0.27214668  0.37146484  0.41364480     0.76800
O573        O  0.32839792  0.33115311  0.31481839    -0.61700
O574        O  0.39064263  0.32390198  0.33955322    -0.52600
C575        C  0.39450586  0.42046135  0.39311588     0.69400
O576        O  0.39322130  0.39984878  0.43625238    -0.47500
C577        C  0.36003737  0.30198418  0.45441802     0.74100
O578        O  0.28731823  0.37298919  0.36274599    -0.59300
O579        O  0.39085205  0.31832086  0.43511856    -0.49400
O580        O  0.29807238  0.37116381  0.45453215    -0.55700
C581        C  0.36040523  0.31232056  0.31182404     0.84300
O582        O  0.37298969  0.41031222  0.35073664    -0.57600
O583        O  0.32663989  0.31838660  0.45068107    -0.60900
In584      In  0.35906314  0.21885248  0.56002428     1.36900
C585        C  0.29350580  0.17942856  0.57664505     0.76800
O586        O  0.38916303  0.25894439  0.61795469    -0.61700
O587        O  0.32562752  0.26450915  0.60079977    -0.52600
C588        C  0.42523560  0.17995818  0.56911997     0.69400
O589        O  0.40848209  0.18491457  0.52013572    -0.47500
C590        C  0.36152723  0.26706491  0.48057913     0.74100
O591        O  0.31479053  0.19125325  0.61812659    -0.59300
O592        O  0.32899127  0.25085788  0.49291667    -0.49400
O593        O  0.30876991  0.18372486  0.52626949    -0.55700
C594        C  0.35751813  0.27819797  0.62101373     0.84300
O595        O  0.40468814  0.19095153  0.61258780    -0.57600
O596        O  0.39418819  0.25275600  0.49771704    -0.60900
In597      In  0.17249055  0.18169935  0.60630140     1.36900
C598        C  0.25070163  0.16914590  0.58638684     0.76800
O599        O  0.19806301  0.22794437  0.56013143    -0.61700
O600        O  0.13457459  0.21748746  0.54963026    -0.52600
C601        C  0.12832377  0.12154117  0.60773047     0.69400
O602        O  0.14841006  0.13262118  0.65103922    -0.47500
C603        C  0.15850990  0.23147594  0.68311276     0.74100
O604        O  0.22495130  0.16856946  0.54536942    -0.59300
O605        O  0.12971540  0.21941938  0.65288351    -0.49400
O606        O  0.23541326  0.16865548  0.63724962    -0.55700
C607        C  0.16398750  0.23869532  0.54240175     0.84300
O608        O  0.13138143  0.14100265  0.56332708    -0.57600
O609        O  0.19001843  0.21196907  0.68548886    -0.60900
In610      In  0.16187902  0.32368499  0.43905401     1.36900
C611        C  0.22913528  0.36155637  0.42338635     0.76800
O612        O  0.12795120  0.28274039  0.48958578    -0.61700
O613        O  0.18983921  0.29407572  0.51159627    -0.52600
C614        C  0.09640664  0.36529629  0.44343353     0.69400
O615        O  0.11165118  0.35380140  0.39600598    -0.47500
C616        C  0.16456076  0.26618997  0.37359646     0.74100
O617        O  0.21475752  0.35538622  0.47362023    -0.59300
O618        O  0.19613280  0.27907166  0.39619788    -0.49400
O619        O  0.20640236  0.35228747  0.38163535    -0.55700
C620        C  0.15999208  0.27311125  0.51516908     0.84300
O621        O  0.11726689  0.35823073  0.48817916    -0.57600
O622        O  0.13309309  0.28577934  0.37613218    -0.60900
In623      In  0.84890977  0.18416494  0.61086123     1.36900
C624        C  0.77129436  0.17366037  0.58707893     0.76800
O625        O  0.82828556  0.21056162  0.69279528    -0.61700
O626        O  0.88874358  0.22068862  0.66130106    -0.52600
C627        C  0.89245775  0.12296937  0.61147510     0.69400
O628        O  0.87249226  0.13462506  0.65516373    -0.47500
C629        C  0.86013559  0.24271627  0.55040995     0.74100
O630        O  0.79856122  0.17201513  0.54747650    -0.59300
O631        O  0.88905845  0.22070833  0.55776123    -0.49400
O632        O  0.78462803  0.17340506  0.63864517    -0.55700
C633        C  0.85880157  0.23087458  0.69226897     0.84300
O634        O  0.89005672  0.14262549  0.56726506    -0.57600
O635        O  0.82558863  0.23247651  0.56712997    -0.60900
In636      In  0.86207932  0.32433001  0.44119863     1.36900
C637        C  0.79383362  0.36048425  0.41968904     0.76800
O638        O  0.89033277  0.28437809  0.37908238    -0.61700
O639        O  0.82929628  0.27655300  0.40904496    -0.52600
C640        C  0.92677716  0.36635548  0.44517625     0.69400
O641        O  0.90407236  0.36062932  0.48889455    -0.47500
C642        C  0.86483696  0.27697586  0.52259406     0.74100
O643        O  0.81798571  0.35016879  0.37944047    -0.59300
O644        O  0.83513107  0.29849547  0.51866354    -0.49400
O645        O  0.80703209  0.35610125  0.47073859    -0.55700
C646        C  0.86021278  0.26369763  0.38336859     0.84300
O647        O  0.91339589  0.35379145  0.39774129    -0.57600
O648        O  0.89670054  0.28511648  0.49473528    -0.60900
C649        C  0.98982510  0.39067152  0.39867045    -0.10000
C650        C  0.96843768  0.38167196  0.44986315     0.06200
C651        C  0.99061902  0.37948664  0.50239549    -0.03700
C652        C  0.03339581  0.37852885  0.50048752    -0.08200
C653        C  0.05469311  0.38096527  0.44734271     0.05300
C654        C  0.03277144  0.39093315  0.39732434    -0.03200
Br655      Br  0.06004780  0.40420873  0.32645057    -0.02900
H656        H  0.97321965  0.39532143  0.35884430     0.09200
H657        H  0.04979287  0.37250294  0.54015306     0.07300
Br658      Br  0.96515301  0.37324641  0.57732986    -0.03300
C659        C  0.53357683  0.17429401  0.62141339    -0.10000
C660        C  0.55414337  0.16676731  0.56872924     0.06200
C661        C  0.53137389  0.15399339  0.52112346    -0.03700
C662        C  0.48851014  0.15435967  0.52429597    -0.08200
C663        C  0.46792629  0.16710459  0.57445494     0.05300
C664        C  0.49101313  0.17462119  0.62492424    -0.03200
Br665      Br  0.46776710  0.19119211  0.69775609    -0.02900
H666        H  0.55046621  0.18379474  0.65888307     0.09200
H667        H  0.47130190  0.14703579  0.48606365     0.07300
Br668      Br  0.55676449  0.13747816  0.45008170    -0.03300
C669        C  0.98944532  0.65308756  0.57037480    -0.10000
C670        C  0.96801599  0.66363483  0.62102020     0.06200
C671        C  0.99000696  0.66663855  0.67369285    -0.03700
C672        C  0.03289296  0.66694405  0.67183604    -0.08200
C673        C  0.05418462  0.66318130  0.61858396     0.05300
C674        C  0.03223058  0.65230240  0.56896850    -0.03200
Br675      Br  0.05885584  0.63746029  0.49782418    -0.02900
H676        H  0.97294527  0.64777302  0.53057192     0.09200
H677        H  0.04934014  0.67341930  0.71138434     0.07300
Br678      Br  0.96398162  0.67329153  0.74851038    -0.03300
C679        C  0.53525456  0.88827560  0.36057562    -0.10000
C680        C  0.55618848  0.87701866  0.41051988     0.06200
C681        C  0.53352693  0.87259403  0.46275284    -0.03700
C682        C  0.49082699  0.87305795  0.46123031    -0.08200
C683        C  0.46989249  0.87770452  0.40860056     0.05300
C684        C  0.49230877  0.88868558  0.35920753    -0.03200
Br685      Br  0.46599797  0.90451683  0.62282514    -0.02900
H686        H  0.55217496  0.89398695  0.32119046     0.09200
H687        H  0.47417178  0.86603240  0.50045487     0.07300
Br688      Br  0.55796137  0.86143211  0.53647246    -0.03300
In689      In  0.67120905  0.67955970  0.88898258     1.36900
C690        C  0.74939777  0.66948637  0.91180591     0.76800
O691        O  0.69132932  0.70363903  0.80624377    -0.61700
O692        O  0.63018302  0.71355320  0.83656869    -0.52600
C693        C  0.62796241  0.61899513  0.89114271     0.69400
O694        O  0.64872700  0.62891207  0.84760094    -0.47500
C695        C  0.66000421  0.74009418  0.94685059     0.74100
O696        O  0.73544899  0.66665265  0.86072397    -0.59300
O697        O  0.63069624  0.71882545  0.93920539    -0.49400
O698        O  0.72249210  0.67035663  0.95201973    -0.55700
C699        C  0.66014990  0.72357979  0.80623670     0.84300
O700        O  0.62992611  0.63985644  0.93453433    -0.57600
O701        O  0.69443683  0.72849040  0.93106444    -0.60900
In702      In  0.66125489  0.81931100  0.72556420     1.36900
C703        C  0.72640922  0.85896825  0.74591020     0.76800
O704        O  0.63105858  0.77975145  0.78334753    -0.61700
O705        O  0.69308571  0.77085734  0.75794597    -0.52600
C706        C  0.59577213  0.85907762  0.73801582     0.69400
O707        O  0.61346945  0.85528307  0.68888311    -0.47500
C708        C  0.65853669  0.77278144  0.64271777     0.74100
O709        O  0.70572761  0.84486889  0.78615637    -0.59300
O710        O  0.69069224  0.78993338  0.65339274    -0.49400
O711        O  0.71138207  0.85585451  0.69545816    -0.55700
C712        C  0.66112953  0.75863608  0.78086115     0.84300
O713        O  0.61450222  0.84540721  0.78022123    -0.57600
O714        O  0.62572848  0.78593225  0.66285297    -0.60900
In715      In  0.34852197  0.68159089  0.89394947     1.36900
C716        C  0.26988083  0.67143189  0.91076746     0.76800
O717        O  0.32456283  0.72704575  0.94627795    -0.61700
O718        O  0.38905444  0.71868839  0.94453564    -0.52600
C719        C  0.39195797  0.62057998  0.89395277     0.69400
O720        O  0.38738428  0.63993514  0.93888262    -0.47500
C721        C  0.36037442  0.73002614  0.81735485     0.74100
O722        O  0.28572584  0.67083492  0.86022510    -0.59300
O723        O  0.39007755  0.71804345  0.84593936    -0.49400
O724        O  0.29510571  0.67027602  0.95243889    -0.55700
C725        C  0.35936632  0.73906559  0.95743578     0.84300
O726        O  0.37381691  0.63228227  0.84953453    -0.57600
O727        O  0.32904968  0.71073344  0.81577161    -0.60900
In728      In  0.36065591  0.82442823  0.73339599     1.36900
C729        C  0.29230710  0.86217185  0.74938366     0.76800
O730        O  0.39697150  0.78603898  0.67769260    -0.61700
O731        O  0.33324482  0.79350530  0.66182893    -0.52600
C732        C  0.42539482  0.86525529  0.73871528     0.69400
O733        O  0.40780499  0.85875769  0.69080794    -0.47500
C734        C  0.36017200  0.76555213  0.79342782     0.74100
O735        O  0.31398177  0.85143618  0.79120707    -0.59300
O736        O  0.32800689  0.77930185  0.77376759    -0.49400
O737        O  0.30809927  0.85733938  0.69927397    -0.55700
C738        C  0.36474075  0.77418060  0.65534326     0.84300
O739        O  0.40635260  0.85468836  0.78346139    -0.57600
O740        O  0.39135435  0.78501395  0.79182727    -0.60900
In741      In  0.17005418  0.86277193  0.77532362     1.36900
C742        C  0.24907693  0.87257206  0.75824807     0.76800
O743        O  0.19044377  0.83243424  0.85210602    -0.61700
O744        O  0.12927972  0.82507293  0.82322615    -0.52600
C745        C  0.12701554  0.92395868  0.77571070     0.69400
O746        O  0.12958969  0.90356135  0.73183731    -0.47500
C747        C  0.15970686  0.80641914  0.70955394     0.74100
O748        O  0.23297345  0.87375866  0.80865801    -0.59300
O749        O  0.12921086  0.82446011  0.72724832    -0.49400
O750        O  0.22390852  0.87338805  0.71645993    -0.55700
C751        C  0.15924859  0.81298501  0.85107689     0.84300
O752        O  0.14678294  0.91318608  0.81932591    -0.57600
O753        O  0.19391166  0.82066824  0.71665106    -0.60900
In754      In  0.16003588  0.72000542  0.93908952     1.36900
C755        C  0.22684287  0.68152934  0.92051202     0.76800
O756        O  0.12904919  0.75738048  0.87710073    -0.61700
O757        O  0.19192810  0.76479099  0.89703154    -0.52600
C758        C  0.09547203  0.67917129  0.94979781     0.69400
O759        O  0.11678124  0.68837882  0.99315532    -0.47500
C760        C  0.16006883  0.77173967  0.01394655     0.74100
O761        O  0.20399146  0.69124158  0.87922179    -0.59300
O762        O  0.19099208  0.75180963  0.00661915    -0.49400
O763        O  0.21261092  0.68741898  0.97114846    -0.55700
C764        C  0.15977316  0.77753144  0.87571403     0.84300
O765        O  0.11002164  0.68791527  0.90075082    -0.57600
O766        O  0.12692748  0.76030480  0.99379430    -0.60900
In767      In  0.84725366  0.86188547  0.77224622     1.36900
C768        C  0.76841609  0.87112555  0.75599778     0.76800
O769        O  0.82521488  0.82384204  0.70523600    -0.61700
O770        O  0.88788849  0.82064365  0.72926741    -0.52600
C771        C  0.89141612  0.92280204  0.77463511     0.69400
O772        O  0.89011112  0.90238474  0.73071756    -0.47500
C773        C  0.85573384  0.81086916  0.84762057     0.74100
O774        O  0.79396617  0.87416269  0.71441973    -0.59300
O775        O  0.88609941  0.82278289  0.82016977    -0.49400
O776        O  0.78374525  0.87106986  0.80653550    -0.55700
C777        C  0.85791715  0.80608796  0.70462383     0.84300
O778        O  0.86982890  0.91221725  0.81693986    -0.57600
O779        O  0.82429115  0.83049546  0.84769563    -0.60900
In780      In  0.85877010  0.71860735  0.93859056     1.36900
C781        C  0.79217199  0.67980137  0.92229341     0.76800
O782        O  0.89324056  0.75986754  0.98814530    -0.61700
O783        O  0.83030531  0.75077214  0.00884427    -0.52600
C784        C  0.92515540  0.67917915  0.95123087     0.69400
O785        O  0.91162139  0.68755594  0.90159716    -0.47500
C786        C  0.85587695  0.77565871  0.87351046     0.74100
O787        O  0.80491831  0.68781421  0.97258322    -0.59300
O788        O  0.82454861  0.76325219  0.89781471    -0.49400
O789        O  0.81633277  0.68753562  0.88094344    -0.55700
C790        C  0.86089847  0.77096087  0.01247521     0.81500
O791        O  0.90158003  0.68712828  0.99342328    -0.57600
O792        O  0.88692856  0.75544276  0.87332686    -0.60900
C793        C  0.60282957  0.58510398  0.89098299     0.85700
C794        C  0.60973829  0.56198421  0.83600192    -0.54600
C795        C  0.58686901  0.53205338  0.83348926     0.08600
C796        C  0.55981756  0.52701079  0.89004244     0.19500
C797        C  0.55626117  0.59157712  0.89282627    -0.55300
C798        C  0.53301272  0.56118846  0.89209918     0.08700
C799        C  0.61095024  0.56099352  0.94355824    -0.54800
C800        C  0.58780554  0.53101983  0.94541408     0.09300
H801        H  0.62985507  0.56951142  0.80028957     0.13800
H802        H  0.54278661  0.50180274  0.88947754    -0.00500
H803        H  0.54346856  0.61824544  0.89420590     0.14100
H804        H  0.63155440  0.56827628  0.97853253     0.13900
C805        C  0.41702899  0.58634970  0.89330877     0.85700
C806        C  0.40910984  0.56269871  0.94653371    -0.54600
C807        C  0.43224605  0.53244083  0.94805638     0.08600
C808        C  0.45999193  0.52764874  0.89188905     0.19500
C809        C  0.46358181  0.59218133  0.89350726    -0.55300
C810        C  0.48682359  0.56147684  0.89261260     0.08700
C811        C  0.40981592  0.56300533  0.83897549    -0.54800
C812        C  0.43258919  0.53266885  0.83618822     0.09300
H813        H  0.38855315  0.57038717  0.98198801     0.13800
H814        H  0.47701077  0.50218910  0.89128798    -0.00500
H815        H  0.47637141  0.61866930  0.89395717     0.14100
H816        H  0.38951521  0.57063824  0.80392466     0.13900
C817        C  0.60241050  0.45481963  0.72283161     0.85700
C818        C  0.61035471  0.47874687  0.77602297    -0.54600
C819        C  0.58714027  0.50886199  0.77866336     0.08600
C820        C  0.55934592  0.51332889  0.72325490     0.19500
C821        C  0.55595647  0.44875512  0.72419704    -0.55300
C822        C  0.53262948  0.47934892  0.72427030     0.08700
C823        C  0.60959232  0.47773360  0.66852595    -0.54800
C824        C  0.58688877  0.50810754  0.66674403     0.09300
H825        H  0.63087099  0.47124549  0.81092593     0.13800
H826        H  0.54226344  0.53875776  0.72352845    -0.00500
H827        H  0.54334623  0.42232468  0.72501452     0.14100
H828        H  0.62996372  0.46987183  0.63290748     0.13900
C829        C  0.41661061  0.45520443  0.72625189     0.85700
C830        C  0.40952395  0.47828324  0.67198374    -0.54600
C831        C  0.43253751  0.50825682  0.66942150     0.08600
C832        C  0.45967040  0.51333484  0.72534930     0.19500
C833        C  0.46328256  0.44876118  0.72629078    -0.55300
C834        C  0.48647218  0.47928477  0.72549320     0.08700
C835        C  0.40882292  0.47938878  0.77965086    -0.54800
C836        C  0.43205275  0.50923116  0.78155239     0.09300
H837        H  0.38928501  0.47063809  0.63680681     0.13800
H838        H  0.47663865  0.53857848  0.72510266    -0.00500
H839        H  0.47608670  0.42222613  0.72644740     0.14100
H840        H  0.38842078  0.47223293  0.81519034     0.13900
C841        C  0.91374068  0.08730702  0.94531198     0.85700
C842        C  0.90725280  0.06443136  0.99983487    -0.54600
C843        C  0.93078706  0.03449875  0.00176094     0.08600
C844        C  0.95812903  0.02947096  0.94500141     0.19500
C845        C  0.96013026  0.09403989  0.94358763    -0.55300
C846        C  0.98412810  0.06378190  0.94359942     0.08700
C847        C  0.90612653  0.06304325  0.89233787    -0.54800
C848        C  0.93004243  0.03328657  0.88967858     0.09300
H849        H  0.88681556  0.07206046  0.03550315     0.13800
H850        H  0.97580856  0.00434309  0.94487157    -0.00500
H851        H  0.97215578  0.12060287  0.94256854     0.14100
H852        H  0.88539117  0.07014628  0.85748350     0.13900
C853        C  0.09954560  0.08976931  0.94103414     0.85700
C854        C  0.10776533  0.06591049  0.88746708    -0.54600
C855        C  0.08534291  0.03566934  0.88553501     0.08600
C856        C  0.05805223  0.03084832  0.94187563     0.19500
C857        C  0.05277625  0.09537835  0.94146469    -0.55300
C858        C  0.03034215  0.06446679  0.94228874     0.08700
C859        C  0.10761054  0.06668398  0.99504459    -0.54800
C860        C  0.08559511  0.03609464  0.99742083     0.09300
H861        H  0.12799526  0.07345221  0.85194325     0.13800
H862        H  0.04166098  0.00530792  0.94197574    -0.00500
H863        H  0.03938652  0.12163489  0.94142207     0.14100
H864        H  0.12790542  0.07463042  0.02997065     0.13900
C865        C  0.91634845  0.95706689  0.77616857     0.85700
C866        C  0.90853112  0.98139325  0.72364175    -0.54600
C867        C  0.93140493  0.01157790  0.72246213     0.08600
C868        C  0.95859320  0.01571055  0.77853912     0.19500
C869        C  0.96308800  0.95117966  0.77510302    -0.55300
C870        C  0.98587785  0.98190689  0.77640873     0.08700
C871        C  0.90866780  0.97992107  0.83130506    -0.54800
C872        C  0.93108354  0.01016163  0.83458110     0.09300
H873        H  0.88849944  0.97400841  0.68805340     0.13800
H874        H  0.97530113  0.04108318  0.77975396    -0.00500
H875        H  0.97627557  0.92471702  0.77330194     0.14100
H876        H  0.88838097  0.97197538  0.86654371     0.13900
C877        C  0.10208105  0.95813231  0.77573352     0.85700
C878        C  0.10896828  0.98202344  0.82940164    -0.54600
C879        C  0.08579481  0.01214958  0.83114654     0.08600
C880        C  0.05852582  0.01642801  0.77506863     0.19500
C881        C  0.05566208  0.95189042  0.77555821    -0.55300
C882        C  0.03206849  0.98232018  0.77545125     0.08700
C883        C  0.11000479  0.98124707  0.72186837    -0.54800
C884        C  0.08661743  0.01130672  0.71911246     0.09300
H885        H  0.12910470  0.97483152  0.86489691     0.13800
H886        H  0.04116908  0.04172300  0.77484312    -0.00500
H887        H  0.04323265  0.92534467  0.77616730     0.14100
H888        H  0.13089107  0.97334045  0.68693820     0.13900
In889      In  0.67080263  0.36031120  0.72352987     1.36900
C890        C  0.74774275  0.37119426  0.74942820     0.76800
O891        O  0.69272164  0.31052955  0.76389373    -0.61700
O892        O  0.62963578  0.32350960  0.77460786    -0.52600
C893        C  0.62739663  0.42080230  0.72335845     0.69400
O894        O  0.64842262  0.41000128  0.68015324    -0.47500
C895        C  0.66134626  0.31565484  0.64008964     0.74100
O896        O  0.72017107  0.37076325  0.78864502    -0.59300
O897        O  0.63079317  0.32670905  0.66899669    -0.49400
O898        O  0.73488148  0.37315901  0.69775372    -0.55700
C899        C  0.65795082  0.30073908  0.78045926     0.84300
O900        O  0.62906692  0.40080616  0.76722601    -0.57600
O901        O  0.69295901  0.33455616  0.64234479    -0.60900
In902      In  0.65645203  0.21765112  0.88593823     1.36900
C903        C  0.72505304  0.18163308  0.90601728     0.76800
O904        O  0.62149005  0.25886771  0.83722224    -0.61700
O905        O  0.68120081  0.24334944  0.80709340    -0.52600
C906        C  0.59278226  0.17459777  0.88745633     0.69400
O907        O  0.61028725  0.18549017  0.93304213    -0.47500
C908        C  0.65890821  0.27686424  0.94757696     0.74100
O909        O  0.71253238  0.18731753  0.85488014    -0.59300
O910        O  0.68994316  0.26401466  0.92215322    -0.49400
O911        O  0.70030226  0.19075132  0.94615839    -0.55700
C912        C  0.65254000  0.26614524  0.80688636     0.84300
O913        O  0.61060695  0.18309486  0.84048878    -0.57600
O914        O  0.62814575  0.25682078  0.94913640    -0.60900
In915      In  0.34642510  0.36110101  0.72795903     1.36900
C916        C  0.26746488  0.37251677  0.74485394     0.76800
O917        O  0.32510764  0.33215284  0.64969636    -0.61700
O918        O  0.38704118  0.32480089  0.67620592    -0.52600
C919        C  0.39112503  0.42134767  0.72730274     0.69400
O920        O  0.38646402  0.40258606  0.77230342    -0.47500
C921        C  0.35725735  0.30247528  0.78836130     0.74100
O922        O  0.28350443  0.37245361  0.69443015    -0.59300
O923        O  0.38728643  0.32149025  0.77393974    -0.49400
O924        O  0.29268746  0.37385023  0.78661287    -0.55700
C925        C  0.35702201  0.31315108  0.64803436     0.84300
O926        O  0.37228613  0.40959918  0.68335974    -0.57600
O927        O  0.32278015  0.31663566  0.78132785    -0.60900
In928      In  0.35976225  0.21693002  0.88910904     1.36900
C929        C  0.29047565  0.18203890  0.90689345     0.76800
O930        O  0.39213291  0.25817184  0.94301862    -0.61700
O931        O  0.32747881  0.26133510  0.93520025    -0.52600
C932        C  0.42372599  0.17320681  0.89337357     0.69400
O933        O  0.40503858  0.17906665  0.84617178    -0.47500
C934        C  0.36102151  0.26686399  0.81207208     0.74100
O935        O  0.31304620  0.19233799  0.94823273    -0.59300
O936        O  0.33012960  0.24740480  0.81895211    -0.49400
O937        O  0.30596236  0.18544137  0.85642692    -0.55700
C938        C  0.35993686  0.27636428  0.95049400     0.84300
O939        O  0.40647943  0.18652903  0.93805105    -0.57600
O940        O  0.39396947  0.25490760  0.83238980    -0.60900
In941      In  0.16758505  0.18459939  0.93537085     1.36900
C942        C  0.24689021  0.17355596  0.91665079     0.76800
O943        O  0.19033953  0.22654793  0.87721435    -0.61700
O944        O  0.12583159  0.22324565  0.88918247    -0.52600
C945        C  0.12396968  0.12406776  0.93920063     0.69400
O946        O  0.14286644  0.13651108  0.98254158    -0.47500
C947        C  0.15748876  0.23458097  0.01237734     0.74100
O948        O  0.22125806  0.17273185  0.87542111    -0.59300
O949        O  0.12744632  0.22352352  0.98370651    -0.49400
O950        O  0.23117979  0.17356291  0.96730244    -0.55700
C951        C  0.15595980  0.24114752  0.87155690     0.84300
O952        O  0.12776184  0.14243753  0.89365247    -0.57600
O953        O  0.18845444  0.21439570  0.01274549    -0.60900
In954      In  0.15593333  0.32641197  0.77060277     1.36900
C955        C  0.22414813  0.36314953  0.75406337     0.76800
O956        O  0.12023006  0.28823437  0.82499004    -0.61700
O957        O  0.18399668  0.29543913  0.84070381    -0.52600
C958        C  0.09157139  0.36886340  0.78010466     0.69400
O959        O  0.10480875  0.35758598  0.73125244    -0.47500
C960        C  0.15770949  0.26715404  0.70844914     0.74100
O961        O  0.20961859  0.35726131  0.80425676    -0.59300
O962        O  0.18879160  0.27976066  0.73261420    -0.49400
O963        O  0.20109997  0.35428879  0.71234341    -0.55700
C964        C  0.15270783  0.27635484  0.84689917     0.84300
O965        O  0.11413194  0.36149421  0.82297558    -0.57600
O966        O  0.12710045  0.28787420  0.70697862    -0.60900
In967      In  0.84498560  0.18202892  0.94487853     1.36900
C968        C  0.76773938  0.17193418  0.91870143     0.76800
O969        O  0.82524638  0.20950071  0.02605594    -0.61700
O970        O  0.88674959  0.21640838  0.99582437    -0.52600
C971        C  0.88820946  0.12117243  0.94481289     0.69400
O972        O  0.86787650  0.13234793  0.98851272    -0.47500
C973        C  0.85649428  0.24099507  0.88689256     0.74100
O974        O  0.79546022  0.17199814  0.87971619    -0.59300
O975        O  0.88502708  0.21825178  0.89136165    -0.49400
O976        O  0.78048219  0.17008178  0.97053118    -0.55700
C977        C  0.85707277  0.22829379  0.02568949     0.84300
O978        O  0.88571513  0.14085066  0.90061710    -0.57600
O979        O  0.82213351  0.23134792  0.90520825    -0.60900
In980      In  0.85804936  0.32457639  0.78254309     1.36900
C981        C  0.79039532  0.36145773  0.76161909     0.76800
O982        O  0.88698398  0.28726260  0.71733301    -0.61700
O983        O  0.82627883  0.27702156  0.74674142    -0.52600
C984        C  0.92247112  0.36588694  0.78997689     0.69400
O985        O  0.89958170  0.35972984  0.83333439    -0.47500
C986        C  0.86117384  0.27556137  0.86063711     0.74100
O987        O  0.81480412  0.35158326  0.72145480    -0.59300
O988        O  0.83146086  0.29718424  0.85827411    -0.49400
O989        O  0.80301560  0.35623790  0.81273876    -0.55700
C990        C  0.85757481  0.26576229  0.71990536     0.84300
O991        O  0.90929496  0.35432507  0.74181038    -0.57600
O992        O  0.89290728  0.28407838  0.83285340    -0.60900
C993        C  0.98336844  0.39327041  0.74420772    -0.10000
C994        C  0.96390443  0.38109129  0.79503370     0.06200
C995        C  0.98761444  0.37604660  0.84561627    -0.03700
C996        C  0.03022495  0.37797105  0.84176451    -0.08200
C997        C  0.04986910  0.38387027  0.78809692     0.05300
C998        C  0.02610520  0.39485714  0.74045279    -0.03200
Br999      Br  0.05037869  0.40994672  0.66843156    -0.02900
H1000       H  0.96550457  0.39878035  0.70574002     0.09200
H1001       H  0.04801514  0.37034598  0.87943553     0.07300
Br1002     Br  0.96528464  0.36012914  0.91856759    -0.03300
C1003       C  0.53120214  0.15816161  0.94404058    -0.10000
C1004       C  0.55171565  0.15803595  0.88999295     0.06200
C1005       C  0.52919995  0.14973204  0.83953508    -0.03700
C1006       C  0.48621856  0.14951787  0.84244191    -0.08200
C1007       C  0.46550609  0.15715590  0.89523400     0.05300
C1008       C  0.48849699  0.15752109  0.94713792    -0.03200
Br1009     Br  0.46413369  0.16082790  0.02347030    -0.02900
H1010       H  0.54804793  0.16232549  0.98389299     0.09200
H1011       H  0.46914153  0.14633915  0.80271227     0.07300
Br1012     Br  0.55523045  0.14023569  0.76562139    -0.03300
C1013       C  0.98890460  0.65250329  0.90973177    -0.10000
C1014       C  0.96750016  0.66559220  0.95890261     0.06200
C1015       C  0.98971927  0.67257409  0.01043054    -0.03700
C1016       C  0.03250062  0.67200725  0.00862016    -0.08200
C1017       C  0.05379114  0.66458857  0.95648876     0.05300
C1018       C  0.03174146  0.65160421  0.90834397    -0.03200
Br1019     Br  0.05841932  0.63440901  0.83864771    -0.02900
H1020       H  0.97235027  0.64528653  0.87072004     0.09200
H1021       H  0.04897168  0.68126366  0.04666074     0.07300
Br1022     Br  0.96467186  0.68813653  0.08247539    -0.03300
C1023       C  0.53374057  0.88624337  0.69459420    -0.10000
C1024       C  0.55401632  0.87416934  0.74451433     0.06200
C1025       C  0.53120068  0.87016551  0.79659182    -0.03700
C1026       C  0.48861140  0.87229550  0.79510044    -0.08200
C1027       C  0.46791871  0.87841215  0.74271006     0.05300
C1028       C  0.49092335  0.88860413  0.69341153    -0.03200
Br1029     Br  0.46277274  0.90181703  0.94824959    -0.02900
H1030       H  0.55089799  0.89151523  0.65535909     0.09200
H1031       H  0.47166428  0.86530778  0.83397679     0.07300
Br1032     Br  0.55491293  0.85725178  0.86990005    -0.03300
loop_ 
_geom_bond_atom_site_label_1 
_geom_bond_atom_site_label_2 
_geom_bond_distance 
_geom_bond_site_symmetry_2 
_ccdc_geom_bond_type 
In1           O3   2.211       .  S
In1           O4   2.225       .  S
In1          O12   2.284       .  S
In1           O6   2.271       .  S
In1           O8   2.242       .  S
In1           O9   2.274       .  S
In1          O10   2.247       .  S
In1          O13   2.216       .  S
C2            O8   1.265       .  A
C2           O10   1.269       .  A
C2           C93   1.475       .  S
O3           C11   1.261       .  A
O4           C11   1.259       .  A
C5           O12   1.265       .  A
C5            O6   1.264       .  A
C5          C105   1.530       .  S
C7            O9   1.265       .  A
C7           O13   1.252       .  A
C7          C364   1.455       .  S
C11          C24   1.454       .  S
In14         O16   2.242       .  S
In14         O17   2.232       .  S
In14         O25   2.199       .  S
In14         O19   2.250       .  S
In14         O21   2.249       .  S
In14         O22   2.210   1_554  S
In14         O23   2.262       .  S
In14         O26   2.238       .  S
C15          O21   1.264       .  A
C15          O23   1.265       .  A
C15          C80   1.475       .  S
O16          C24   1.261       .  A
O17          C24   1.258       .  A
C18          O25   1.261       .  A
C18          O19   1.267       .  A
C18         C336   1.482       .  S
C20          O22   1.263       .  A
C20          O26   1.258   1_556  A
C20         C695   1.455       .  S
In27         O29   2.221       .  S
In27         O30   2.261       .  S
In27         O38   2.271       .  S
In27         O32   2.277       .  S
In27         O34   2.234       .  S
In27         O35   2.235       .  S
In27         O36   2.246       .  S
In27         O39   2.230       .  S
C28          O34   1.266       .  A
C28          O36   1.269       .  A
C28          C67   1.470       .  S
O29          C37   1.256       .  A
O30          C37   1.262       .  A
C31          O38   1.264       .  A
C31          O32   1.263       .  A
C31         C117   1.525       .  S
C33          O35   1.258       .  A
C33          O39   1.260       .  A
C33          C46   1.457       .  S
C37         C394   1.457       .  S
In40         O42   2.229       .  S
In40         O43   2.206   1_554  S
In40         O51   2.213       .  S
In40         O45   2.238       .  S
In40         O47   2.238       .  S
In40         O48   2.231       .  S
In40         O49   2.246       .  S
In40         O52   2.245       .  S
C41          O47   1.265       .  A
C41          O49   1.265       .  A
C41          C54   1.469       .  S
O42          C50   1.258   1_554  A
O43          C50   1.263       .  A
C44          O51   1.264       .  A
C44          O45   1.264       .  A
C44         C339   1.480       .  S
C46          O48   1.258       .  A
C46          O52   1.262       .  A
C50         C725   1.450       .  S
In53         O55   2.221       .  S
In53         O56   2.245       .  S
In53         O64   2.266       .  S
In53         O58   2.282       .  S
In53         O60   2.237       .  S
In53         O61   2.246       .  S
In53         O62   2.239       .  S
In53         O65   2.216       .  S
C54          O60   1.266       .  A
C54          O62   1.268       .  A
O55          C63   1.260       .  A
O56          C63   1.259       .  A
C57          O64   1.265       .  A
C57          O58   1.263       .  A
C57         C189   1.529       .  S
C59          O61   1.262       .  A
C59          O65   1.256       .  A
C59         C760   1.448       .  S
C63          C76   1.458       .  S
In66         O68   2.254       .  S
In66         O69   2.219       .  S
In66         O77   2.221       .  S
In66         O71   2.235       .  S
In66         O73   2.240       .  S
In66         O74   2.198       .  S
In66         O75   2.246       .  S
In66         O78   2.242       .  S
C67          O73   1.265       .  A
C67          O75   1.265       .  A
O68          C76   1.263       .  A
O69          C76   1.256       .  A
C70          O77   1.265       .  A
C70          O71   1.266       .  A
C70         C329   1.481       .  S
C72          O74   1.261       .  A
C72          O78   1.260       .  A
C72         C403   1.448       .  S
In79         O81   2.205       .  S
In79         O82   2.261       .  S
In79         O90   2.274       .  S
In79         O84   2.279       .  S
In79         O86   2.254       .  S
In79         O87   2.239       .  S
In79         O88   2.241       .  S
In79         O91   2.224       .  S
C80          O86   1.269       .  A
C80          O88   1.266       .  A
O81          C89   1.252       .  A
O82          C89   1.265       .  A
C83          O90   1.265       .  A
C83          O84   1.264       .  A
C83         C177   1.528       .  S
C85          O87   1.258       .  A
C85          O91   1.262       .  A
C85          C98   1.459       .  S
C89         C790   1.447       .  S
In92         O94   2.244       .  S
In92         O95   2.202       .  S
In92        O103   2.235       .  S
In92         O97   2.233       .  S
In92         O99   2.251       .  S
In92        O100   2.223       .  S
In92        O101   2.258       .  S
In92        O104   2.253       .  S
C93          O99   1.264       .  A
C93         O101   1.266       .  A
O94         C102   1.259       .  A
O95         C102   1.266       .  A
C96         O103   1.262       .  A
C96          O97   1.266       .  A
C96         C326   1.484       .  S
C98         O100   1.257       .  A
C98         O104   1.266       .  A
C102        C433   1.453       .  S
C105        C106   1.542       .  S
C105        C111   1.538       .  S
C105        C109   1.544       .  S
C106        H113   1.087       .  S
C106        C107   1.362       .  D
C107        C108   1.580       .  S
C107        C131   1.532       .  S
C108        C112   1.579       .  S
C108        C110   1.552       .  S
C108        H114   1.105       .  S
C109        H115   1.083       .  S
C109        C110   1.382       .  D
C110        C122   1.514       .  S
C111        H116   1.086       .  S
C111        C112   1.363       .  D
C112        C480   1.529       .  S
C117        C118   1.538       .  S
C117        C123   1.539       .  S
C117        C121   1.543       .  S
C118        H125   1.086       .  S
C118        C119   1.362       .  D
C119        C120   1.580       .  S
C119        C487   1.529       .  S
C120        C124   1.581       .  S
C120        C122   1.554       .  S
C120        H126   1.105       .  S
C121        H127   1.082       .  S
C121        C122   1.380       .  D
C123        H128   1.086       .  S
C123        C124   1.360       .  D
C124        C148   1.528       .  S
C129        C205   1.530       .  S
C129        C130   1.540       .  S
C129        C135   1.543       .  S
C129        C133   1.541       .  S
C130        H137   1.086       .  S
C130        C131   1.364       .  D
C131        C132   1.578       .  S
C132        C136   1.579   1_554  S
C132        C134   1.553       .  S
C132        H138   1.105       .  S
C133        H139   1.081       .  S
C133        C134   1.381       .  D
C134        C146   1.512       .  S
C135        H140   1.086   1_554  S
C135        C136   1.363   1_554  D
C136        C800   1.531       .  S
C141        C231   1.523       .  S
C141        C142   1.540       .  S
C141        C147   1.538       .  S
C141        C145   1.541       .  S
C142        H149   1.086   1_554  S
C142        C143   1.362       .  D
C143        C144   1.579       .  S
C143        C807   1.528   1_554  S
C144        C148   1.578       .  S
C144        C146   1.552       .  S
C144        H150   1.105       .  S
C145        H151   1.081       .  S
C145        C146   1.380       .  D
C147        H152   1.086       .  S
C147        C148   1.363       .  D
C153        C283   1.519       .  S
C153        C154   1.538       .  S
C153        C159   1.538       .  S
C153        C157   1.539       .  S
C154        H161   1.087       .  S
C154        C155   1.359       .  D
C155        C156   1.580       .  S
C155        C523   1.527       .  S
C156        C160   1.579       .  S
C156        C158   1.554       .  S
C156        H162   1.105       .  S
C157        H163   1.086       .  S
C157        C158   1.378       .  D
C158        C170   1.510   1_655  S
C159        H164   1.086       .  S
C159        C160   1.362       .  D
C160        C184   1.531       .  S
C165        C257   1.525       .  S
C165        C166   1.535       .  S
C165        C171   1.543       .  S
C165        C169   1.543       .  S
C166        H173   1.086       .  S
C166        C167   1.359       .  D
C167        C168   1.578       .  S
C167        C191   1.525       .  S
C168        C172   1.579       .  S
C168        C170   1.550       .  S
C168        H174   1.105       .  S
C169        H175   1.086       .  S
C169        C170   1.381       .  D
C171        H176   1.086       .  S
C171        C172   1.363       .  D
C172        C540   1.532       .  S
C177        C178   1.539       .  S
C177        C183   1.541       .  S
C177        C181   1.544       .  S
C178        H185   1.086       .  S
C178        C179   1.362   1_565  D
C179        C180   1.577       .  S
C179        C843   1.530       .  S
C180        C184   1.581       .  S
C180        C182   1.552   1_545  S
C180        H186   1.105       .  S
C181        H187   1.082       .  S
C181        C182   1.382       .  D
C182        C194   1.512   1_655  S
C183        H188   1.086       .  S
C183        C184   1.361   1_565  D
C189        C190   1.538       .  S
C189        C195   1.542       .  S
C189        C193   1.542       .  S
C190        H197   1.086       .  S
C190        C191   1.358   1_565  D
C191        C192   1.578       .  S
C192        C196   1.578       .  S
C192        C194   1.553   1_545  S
C192        H198   1.105       .  S
C193        H199   1.081       .  S
C193        C194   1.381       .  D
C195        H200   1.086       .  S
C195        C196   1.366   1_565  D
C196        C860   1.532   1_554  S
In201       O203   2.226       .  S
In201       O204   2.258       .  S
In201       O212   2.278       .  S
In201       O206   2.273       .  S
In201       O208   2.249       .  S
In201       O209   2.227       .  S
In201       O210   2.240       .  S
In201       O213   2.212   1_554  S
C202        O208   1.268       .  A
C202        O210   1.264       .  A
C202        C293   1.472       .  S
O203        C211   1.254       .  A
O204        C211   1.267       .  A
C205        O212   1.265       .  A
C205        O206   1.265       .  A
C207        O209   1.259   1_556  A
C207        O213   1.262       .  A
C207        C908   1.453       .  S
C211        C224   1.454       .  S
In214       O216   2.226       .  S
In214       O217   2.216       .  S
In214       O225   2.237       .  S
In214       O219   2.207       .  S
In214       O221   2.251       .  S
In214       O222   2.217       .  S
In214       O223   2.235       .  S
In214       O226   2.252       .  S
C215        O221   1.265       .  A
C215        O223   1.264       .  A
C215        C280   1.467       .  S
O216        C224   1.259       .  A
O217        C224   1.264       .  A
C218        O225   1.266       .  A
C218        O219   1.263       .  A
C218        C316   1.479       .  S
C220        O222   1.257       .  A
C220        O226   1.262       .  A
C220        C551   1.453       .  S
In227       O229   2.213   1_554  S
In227       O230   2.238       .  S
In227       O238   2.267       .  S
In227       O232   2.270       .  S
In227       O234   2.239       .  S
In227       O235   2.266       .  S
In227       O236   2.245       .  S
In227       O239   2.215       .  S
C228        O234   1.266       .  A
C228        O236   1.268       .  A
C228        C267   1.471       .  S
O229        C237   1.260       .  A
O230        C237   1.259   1_554  A
C231        O238   1.264       .  A
C231        O232   1.264       .  A
C233        O235   1.263       .  A
C233        O239   1.255       .  A
C233        C246   1.455       .  S
C237        C938   1.455       .  S
In240       O242   2.241       .  S
In240       O243   2.226       .  S
In240       O251   2.198       .  S
In240       O245   2.251       .  S
In240       O247   2.238       .  S
In240       O248   2.208       .  S
In240       O249   2.260       .  S
In240       O252   2.241       .  S
C241        O247   1.264       .  A
C241        O249   1.267       .  A
C241        C254   1.474       .  S
O242        C250   1.259       .  A
O243        C250   1.258       .  A
C244        O251   1.261       .  A
C244        O245   1.269       .  A
C244        C319   1.483       .  S
C246        O248   1.262       .  A
C246        O252   1.258       .  A
C250        C581   1.452       .  S
In253       O255   2.218       .  S
In253       O256   2.261       .  S
In253       O264   2.274       .  S
In253       O258   2.273       .  S
In253       O260   2.251       .  S
In253       O261   2.230       .  S
In253       O262   2.236       .  S
In253       O265   2.222       .  S
C254        O260   1.269       .  A
C254        O262   1.266       .  A
O255        C263   1.256       .  A
O256        C263   1.262       .  A
C257        O264   1.264       .  A
C257        O258   1.263       .  A
C259        O261   1.258       .  A
C259        O265   1.259       .  A
C259        C616   1.452       .  S
C263        C276   1.454       .  S
In266       O268   2.245       .  S
In266       O269   2.212       .  S
In266       O277   2.226       .  S
In266       O271   2.221       .  S
In266       O273   2.247       .  S
In266       O274   2.205       .  S
In266       O275   2.241       .  S
In266       O278   2.247       .  S
C267        O273   1.266       .  A
C267        O275   1.265       .  A
O268        C276   1.258       .  A
O269        C276   1.261       .  A
C270        O277   1.267       .  A
C270        O271   1.266       .  A
C270        C309   1.479       .  S
C272        O274   1.256       .  A
C272        O278   1.263       .  A
C272        C947   1.450       .  S
In279       O281   2.210       .  S
In279       O282   2.229       .  S
In279       O290   2.261       .  S
In279       O284   2.259       .  S
In279       O286   2.244       .  S
In279       O287   2.253       .  S
In279       O288   2.234       .  S
In279       O291   2.213       .  S
C280        O286   1.266       .  A
C280        O288   1.264       .  A
O281        C289   1.262       .  A
O282        C289   1.259       .  A
C283        O290   1.264       .  A
C283        O284   1.265       .  A
C285        O287   1.266       .  A
C285        O291   1.253       .  A
C285        C298   1.449       .  S
C289        C646   1.454       .  S
In292       O294   2.242       .  S
In292       O295   2.222       .  S
In292       O303   2.232       .  S
In292       O297   2.229       .  S
In292       O299   2.247       .  S
In292       O300   2.210       .  S
In292       O301   2.248       .  S
In292       O304   2.229       .  S
C293        O299   1.265       .  A
C293        O301   1.264       .  A
O294        C302   1.264       .  A
O295        C302   1.257       .  A
C296        O303   1.265       .  A
C296        O297   1.263       .  A
C296        C306   1.479       .  S
C298        O300   1.264       .  A
C298        O304   1.257       .  A
C302        C977   1.452       .  S
C305        C306   1.404       .  A
C305        C310   1.399   1_655  A
C305        H312   1.083       .  S
C306        C307   1.414       .  A
C307        C308   1.397   1_655  A
C307       Br314   1.922       .  S
C308        C309   1.404       .  A
C308        H313   1.084       .  S
C309        C310   1.410       .  A
C310       Br311   1.919       .  S
C315        C316   1.403       .  A
C315        C320   1.394       .  A
C315        H322   1.082       .  S
C316        C317   1.409       .  A
C317        C318   1.402       .  A
C317       Br324   1.920       .  S
C318        C319   1.406       .  A
C318        H323   1.079       .  S
C319        C320   1.415       .  A
C320       Br321   1.924       .  S
C325        C326   1.404       .  A
C325        C330   1.398   1_655  A
C325        H332   1.084       .  S
C326        C327   1.416       .  A
C327        C328   1.399   1_655  A
C327       Br334   1.920       .  S
C328        C329   1.404       .  A
C328        H333   1.085       .  S
C329        C330   1.411       .  A
C330       Br331   1.920       .  S
C335        C336   1.405       .  A
C335        C340   1.402       .  A
C335        H342   1.077   1_554  S
C336        C337   1.412       .  A
C337        C338   1.393       .  A
C337       Br344   1.917       .  S
C338        C339   1.401       .  A
C338        H343   1.083       .  S
C339        C340   1.410       .  A
C340      Br1029   1.918   1_554  S
Br341       C684   1.920       .  S
In345       O347   2.229       .  S
In345       O348   2.225       .  S
In345       O356   2.288       .  S
In345       O350   2.262       .  S
In345       O352   2.243       .  S
In345       O353   2.270       .  S
In345       O354   2.240       .  S
In345       O357   2.202       .  S
C346        O352   1.267       .  A
C346        O354   1.268       .  A
C346        C437   1.472       .  S
O347        C355   1.259       .  A
O348        C355   1.260       .  A
C349        O356   1.264       .  A
C349        O350   1.264       .  A
C349        C449   1.529       .  S
C351        O353   1.262       .  A
C351        O357   1.255       .  A
C351        C708   1.451       .  S
C355        C368   1.455       .  S
In358       O360   2.232       .  S
In358       O361   2.243       .  S
In358       O369   2.198       .  S
In358       O363   2.258       .  S
In358       O365   2.236       .  S
In358       O366   2.207       .  S
In358       O367   2.262       .  S
In358       O370   2.239       .  S
C359        O365   1.264       .  A
C359        O367   1.266       .  A
C359        C424   1.471       .  S
O360        C368   1.260       .  A
O361        C368   1.258       .  A
C362        O369   1.260       .  A
C362        O363   1.269       .  A
C362        C680   1.485       .  S
C364        O366   1.263       .  A
C364        O370   1.258       .  A
In371       O373   2.210       .  S
In371       O374   2.272       .  S
In371       O382   2.263       .  S
In371       O376   2.271       .  S
In371       O378   2.235       .  S
In371       O379   2.235       .  S
In371       O380   2.247       .  S
In371       O383   2.206       .  S
C372        O378   1.266       .  A
C372        O380   1.270       .  A
C372        C411   1.473       .  S
O373        C381   1.255       .  A
O374        C381   1.263       .  A
C375        O382   1.263       .  A
C375        O376   1.264       .  A
C375        C461   1.521       .  S
C377        O379   1.259       .  A
C377        O383   1.258       .  A
C377        C390   1.450       .  S
C381        C738   1.455       .  S
In384       O386   2.246       .  S
In384       O387   2.213       .  S
In384       O395   2.217       .  S
In384       O389   2.242       .  S
In384       O391   2.238       .  S
In384       O392   2.212       .  S
In384       O393   2.254       .  S
In384       O396   2.245       .  S
C385        O391   1.264       .  A
C385        O393   1.267       .  A
C385        C398   1.472       .  S
O386        C394   1.259       .  A
O387        C394   1.261       .  A
C388        O395   1.265       .  A
C388        O389   1.267       .  A
C388        C683   1.484       .  S
C390        O392   1.257       .  A
C390        O396   1.260       .  A
In397       O399   2.228       .  S
In397       O400   2.240       .  S
In397       O408   2.261       .  S
In397       O402   2.269       .  S
In397       O404   2.240       .  S
In397       O405   2.253       .  S
In397       O406   2.244       .  S
In397       O409   2.204       .  S
C398        O404   1.267       .  A
C398        O406   1.268       .  A
O399        C407   1.259       .  A
O400        C407   1.259       .  A
C401        O408   1.265       .  A
C401        O402   1.261       .  A
C401        C533   1.521       .  S
C403        O405   1.261       .  A
C403        O409   1.256       .  A
C407        C420   1.457       .  S
In410       O412   2.250       .  S
In410       O413   2.227       .  S
In410       O421   2.231       .  S
In410       O415   2.242       .  S
In410       O417   2.248       .  S
In410       O418   2.202       .  S
In410       O419   2.249       .  S
In410       O422   2.240       .  S
C411        O417   1.266       .  A
C411        O419   1.264       .  A
O412        C420   1.264       .  A
O413        C420   1.256       .  A
C414        O421   1.265       .  A
C414        O415   1.266       .  A
C414        C673   1.483       .  S
C416        O418   1.262       .  A
C416        O422   1.258       .  A
C416        C747   1.450       .  S
In423       O425   2.207       .  S
In423       O426   2.275       .  S
In423       O434   2.273       .  S
In423       O428   2.268       .  S
In423       O430   2.253       .  S
In423       O431   2.237       .  S
In423       O432   2.229       .  S
In423       O435   2.205       .  S
C424        O430   1.269       .  A
C424        O432   1.265       .  A
O425        C433   1.252       .  A
O426        C433   1.265       .  A
C427        O434   1.264       .  A
C427        O428   1.264       .  A
C427        C521   1.524       .  S
C429        O431   1.259       .  A
C429        O435   1.260       .  A
C429        C442   1.453       .  S
In436       O438   2.232       .  S
In436       O439   2.212       .  S
In436       O447   2.228       .  S
In436       O441   2.227       .  S
In436       O443   2.244       .  S
In436       O444   2.211       .  S
In436       O445   2.249       .  S
In436       O448   2.251       .  S
C437        O443   1.265       .  A
C437        O445   1.265       .  A
O438        C446   1.258       .  A
O439        C446   1.263       .  A
C440        O447   1.265       .  A
C440        O441   1.268       .  A
C440        C670   1.484       .  S
C442        O444   1.256       .  A
C442        O448   1.263       .  A
C446        C777   1.450       .  S
C449        C450   1.539       .  S
C449        C455   1.541       .  S
C449        C453   1.543       .  S
C450        H457   1.087       .  S
C450        C451   1.358       .  D
C451        C452   1.579       .  S
C451        C475   1.527       .  S
C452        C456   1.576       .  S
C452        C454   1.549       .  S
C452        H458   1.105       .  S
C453        H459   1.085       .  S
C453        C454   1.383       .  D
C454        C466   1.510       .  S
C455        H460   1.086       .  S
C455        C456   1.365       .  D
C456        C824   1.529       .  S
C461        C462   1.537       .  S
C461        C467   1.543       .  S
C461        C465   1.537       .  S
C462        H469   1.086       .  S
C462        C463   1.361       .  D
C463        C464   1.582       .  S
C463        C831   1.530       .  S
C464        C468   1.580       .  S
C464        C466   1.556       .  S
C464        H470   1.105       .  S
C465        H471   1.085       .  S
C465        C466   1.376       .  D
C467        H472   1.086       .  S
C467        C468   1.363       .  D
C468        C492   1.531       .  S
C473        C549   1.517       .  S
C473        C474   1.537       .  S
C473        C479   1.538       .  S
C473        C477   1.538       .  S
C474        H481   1.087       .  S
C474        C475   1.362       .  D
C475        C476   1.580       .  S
C476        C480   1.582       .  S
C476        C478   1.552       .  S
C476        H482   1.105       .  S
C477        H483   1.085       .  S
C477        C478   1.378       .  D
C478        C490   1.509       .  S
C479        H484   1.087       .  S
C479        C480   1.359       .  D
C485        C575   1.524       .  S
C485        C486   1.541       .  S
C485        C491   1.538       .  S
C485        C489   1.539       .  S
C486        H493   1.086       .  S
C486        C487   1.360       .  D
C487        C488   1.579       .  S
C488        C492   1.581       .  S
C488        C490   1.553       .  S
C488        H494   1.105       .  S
C489        H495   1.085       .  S
C489        C490   1.380       .  D
C491        H496   1.086       .  S
C491        C492   1.363       .  D
C497        C627   1.524       .  S
C497        C498   1.542       .  S
C497        C503   1.541       .  S
C497        C501   1.537       .  S
C498        H505   1.087       .  S
C498        C499   1.362       .  D
C499        C500   1.582       .  S
C499        C867   1.533       .  S
C500        C504   1.577       .  S
C500        C502   1.557       .  S
C500        H506   1.105       .  S
C501        H507   1.081       .  S
C501        C502   1.377       .  D
C502        C514   1.511   1_655  S
C503        H508   1.086       .  S
C503        C504   1.365       .  D
C504        C528   1.531       .  S
C509        C601   1.524       .  S
C509        C510   1.535       .  S
C509        C515   1.542       .  S
C509        C513   1.542       .  S
C510        H517   1.086       .  S
C510        C511   1.360       .  D
C511        C512   1.579       .  S
C511        C535   1.524       .  S
C512        C516   1.580       .  S
C512        C514   1.549       .  S
C512        H518   1.105       .  S
C513        H519   1.082       .  S
C513        C514   1.382       .  D
C515        H520   1.086       .  S
C515        C516   1.363       .  D
C516        C884   1.532       .  S
C521        C522   1.537       .  S
C521        C527   1.542       .  S
C521        C525   1.539       .  S
C522        H529   1.086       .  S
C522        C523   1.361   1_565  D
C523        C524   1.577       .  S
C524        C528   1.580       .  S
C524        C526   1.553   1_545  S
C524        H530   1.105       .  S
C525        H531   1.084       .  S
C525        C526   1.379       .  D
C526        C538   1.511   1_655  S
C527        H532   1.087       .  S
C527        C528   1.364   1_565  D
C533        C534   1.536       .  S
C533        C539   1.539       .  S
C533        C537   1.541       .  S
C534        H541   1.086       .  S
C534        C535   1.357   1_565  D
C535        C536   1.579       .  S
C536        C540   1.582       .  S
C536        C538   1.552   1_545  S
C536        H542   1.105       .  S
C537        H543   1.083       .  S
C537        C538   1.380       .  D
C539        H544   1.086       .  S
C539        C540   1.364   1_565  D
In545       O547   2.206       .  S
In545       O548   2.257       .  S
In545       O556   2.260       .  S
In545       O550   2.254       .  S
In545       O552   2.246       .  S
In545       O553   2.234       .  S
In545       O554   2.238       .  S
In545       O557   2.201       .  S
C546        O552   1.267       .  A
C546        O554   1.264       .  A
C546        C637   1.471       .  S
O547        C555   1.253       .  A
O548        C555   1.267       .  A
C549        O556   1.263       .  A
C549        O550   1.264       .  A
C551        O553   1.259       .  A
C551        O557   1.261       .  A
C555        C568   1.450       .  S
In558       O560   2.231       .  S
In558       O561   2.208       .  S
In558       O569   2.245       .  S
In558       O563   2.202       .  S
In558       O565   2.258       .  S
In558       O566   2.230       .  S
In558       O567   2.236       .  S
In558       O570   2.228       .  S
C559        O565   1.265       .  A
C559        O567   1.263       .  A
C559        C624   1.470       .  S
O560        C568   1.257       .  A
O561        C568   1.264       .  A
C562        O569   1.266       .  A
C562        O563   1.262       .  A
C562        C660   1.480       .  S
C564        O566   1.258       .  A
C564        O570   1.259       .  A
C564        C895   1.447       .  S
In571       O573   2.219       .  S
In571       O574   2.230       .  S
In571       O582   2.258       .  S
In571       O576   2.280       .  S
In571       O578   2.239       .  S
In571       O579   2.270       .  S
In571       O580   2.248       .  S
In571       O583   2.208       .  S
C572        O578   1.266       .  A
C572        O580   1.269       .  A
C572        C611   1.473       .  S
O573        C581   1.260       .  A
O574        C581   1.258       .  A
C575        O582   1.262       .  A
C575        O576   1.264       .  A
C577        O579   1.263       .  A
C577        O583   1.254       .  A
C577        C590   1.452       .  S
In584       O586   2.241       .  S
In584       O587   2.224       .  S
In584       O595   2.193       .  S
In584       O589   2.235       .  S
In584       O591   2.229       .  S
In584       O592   2.198       .  S
In584       O593   2.256       .  S
In584       O596   2.241       .  S
C585        O591   1.263       .  A
C585        O593   1.267       .  A
C585        C598   1.470       .  S
O586        C594   1.259       .  A
O587        C594   1.256       .  A
C588        O595   1.262       .  A
C588        O589   1.269       .  A
C588        C663   1.479       .  S
C590        O592   1.261       .  A
C590        O596   1.259       .  A
C594        C925   1.450       .  S
In597       O599   2.213       .  S
In597       O600   2.253       .  S
In597       O608   2.270       .  S
In597       O602   2.267       .  S
In597       O604   2.251       .  S
In597       O605   2.242       .  S
In597       O606   2.233       .  S
In597       O609   2.217       .  S
C598        O604   1.268       .  A
C598        O606   1.265       .  A
O599        C607   1.254       .  A
O600        C607   1.266       .  A
C601        O608   1.264       .  A
C601        O602   1.265       .  A
C603        O605   1.259       .  A
C603        O609   1.262       .  A
C603        C960   1.459       .  S
C607        C620   1.450       .  S
In610       O612   2.234       .  S
In610       O613   2.212       .  S
In610       O621   2.236       .  S
In610       O615   2.230       .  S
In610       O617   2.253       .  S
In610       O618   2.228       .  S
In610       O619   2.243       .  S
In610       O622   2.239       .  S
C611        O617   1.265       .  A
C611        O619   1.265       .  A
O612        C620   1.257       .  A
O613        C620   1.262       .  A
C614        O621   1.266       .  A
C614        O615   1.264       .  A
C614        C653   1.482       .  S
C616        O618   1.257       .  A
C616        O622   1.261       .  A
In623       O625   2.215       .  S
In623       O626   2.225       .  S
In623       O634   2.274       .  S
In623       O628   2.267       .  S
In623       O630   2.251       .  S
In623       O631   2.266       .  S
In623       O632   2.231       .  S
In623       O635   2.219       .  S
C624        O630   1.267       .  A
C624        O632   1.264       .  A
O625        C633   1.262       .  A
O626        C633   1.259       .  A
C627        O634   1.264       .  A
C627        O628   1.264       .  A
C629        O631   1.266       .  A
C629        O635   1.254       .  A
C629        C642   1.454       .  S
C633        C990   1.454       .  S
In636       O638   2.250       .  S
In636       O639   2.225       .  S
In636       O647   2.249       .  S
In636       O641   2.231       .  S
In636       O643   2.251       .  S
In636       O644   2.213       .  S
In636       O645   2.248       .  S
In636       O648   2.236       .  S
C637        O643   1.265       .  A
C637        O645   1.263       .  A
O638        C646   1.264       .  A
O639        C646   1.256       .  A
C640        O647   1.265       .  A
C640        O641   1.263       .  A
C640        C650   1.487       .  S
C642        O644   1.264       .  A
C642        O648   1.258       .  A
C649        C650   1.407       .  A
C649        C654   1.403   1_655  A
C649        H656   1.081       .  S
C650        C651   1.414       .  A
C651        C652   1.398   1_655  A
C651       Br658   1.920       .  S
C652        C653   1.402       .  A
C652        H657   1.085       .  S
C653        C654   1.410       .  A
C654       Br655   1.919       .  S
C659        C660   1.403       .  A
C659        C664   1.392       .  A
C659        H666   1.085       .  S
C660        C661   1.409       .  A
C661        C662   1.402       .  A
C661       Br668   1.918       .  S
C662        C663   1.406       .  A
C662        H667   1.080       .  S
C663        C664   1.415       .  A
C664       Br665   1.925       .  S
C669        C670   1.403       .  A
C669        C674   1.398   1_655  A
C669        H676   1.082       .  S
C670        C671   1.415       .  A
C671        C672   1.401   1_655  A
C671       Br678   1.922       .  S
C672        C673   1.406       .  A
C672        H677   1.085       .  S
C673        C674   1.410       .  A
C674       Br675   1.919       .  S
C679        C680   1.406       .  A
C679        C684   1.404       .  A
C679        H686   1.079       .  S
C680        C681   1.415       .  A
C681        C682   1.396       .  A
C681       Br688   1.925       .  S
C682        C683   1.404       .  A
C682        H687   1.083       .  S
C683        C684   1.411       .  A
Br685      C1028   1.917       .  S
In689       O691   2.208       .  S
In689       O692   2.216       .  S
In689       O700   2.277       .  S
In689       O694   2.254       .  S
In689       O696   2.239       .  S
In689       O697   2.275       .  S
In689       O698   2.249       .  S
In689       O701   2.215       .  S
C690        O696   1.265       .  A
C690        O698   1.269       .  A
C690        C781   1.475       .  S
O691        C699   1.261       .  A
O692        C699   1.259       .  A
C693        O700   1.265       .  A
C693        O694   1.264       .  A
C693        C793   1.524       .  S
C695        O697   1.266       .  A
C695        O701   1.253       .  A
C699        C712   1.449       .  S
In702       O704   2.234       .  S
In702       O705   2.230       .  S
In702       O713   2.189       .  S
In702       O707   2.234       .  S
In702       O709   2.236       .  S
In702       O710   2.193       .  S
In702       O711   2.256       .  S
In702       O714   2.239       .  S
C703        O709   1.263       .  A
C703        O711   1.266       .  A
C703        C768   1.470       .  S
O704        C712   1.260       .  A
O705        C712   1.257       .  A
C706        O713   1.261       .  A
C706        O707   1.268       .  A
C706       C1024   1.479       .  S
C708        O710   1.262       .  A
C708        O714   1.259       .  A
In715       O717   2.216       .  S
In715       O718   2.253       .  S
In715       O726   2.258       .  S
In715       O720   2.271       .  S
In715       O722   2.237       .  S
In715       O723   2.231       .  S
In715       O724   2.238       .  S
In715       O727   2.207       .  S
C716        O722   1.265       .  A
C716        O724   1.268       .  A
C716        C755   1.468       .  S
O717        C725   1.255       .  A
O718        C725   1.263       .  A
C719        O726   1.264       .  A
C719        O720   1.264       .  A
C719        C805   1.522       .  S
C721        O723   1.259       .  A
C721        O727   1.261       .  A
C721        C734   1.452       .  S
In728       O730   2.246       .  S
In728       O731   2.204       .  S
In728       O739   2.209       .  S
In728       O733   2.243       .  S
In728       O735   2.243       .  S
In728       O736   2.220       .  S
In728       O737   2.260       .  S
In728       O740   2.246       .  S
C729        O735   1.265       .  A
C729        O737   1.267       .  A
C729        C742   1.474       .  S
O730        C738   1.258       .  A
O731        C738   1.263       .  A
C732        O739   1.265       .  A
C732        O733   1.267       .  A
C732       C1027   1.482       .  S
C734        O736   1.257       .  A
C734        O740   1.260       .  A
In741       O743   2.213       .  S
In741       O744   2.244       .  S
In741       O752   2.265       .  S
In741       O746   2.264       .  S
In741       O748   2.240       .  S
In741       O749   2.260       .  S
In741       O750   2.249       .  S
In741       O753   2.204       .  S
C742        O748   1.266       .  A
C742        O750   1.269       .  A
O743        C751   1.260       .  A
O744        C751   1.258       .  A
C745        O752   1.264       .  A
C745        O746   1.262       .  A
C745        C877   1.518       .  S
C747        O749   1.263       .  A
C747        O753   1.255       .  A
C751        C764   1.455       .  S
In754       O756   2.252       .  S
In754       O757   2.215       .  S
In754       O765   2.223       .  S
In754       O759   2.232       .  S
In754       O761   2.244       .  S
In754       O762   2.206   1_556  S
In754       O763   2.237       .  S
In754       O766   2.228       .  S
C755        O761   1.266       .  A
C755        O763   1.264       .  A
O756        C764   1.264       .  A
O757        C764   1.256       .  A
C758        O765   1.265       .  A
C758        O759   1.266       .  A
C758       C1017   1.480       .  S
C760        O762   1.263       .  A
C760        O766   1.258   1_554  A
In767       O769   2.220       .  S
In767       O770   2.250       .  S
In767       O778   2.278       .  S
In767       O772   2.288       .  S
In767       O774   2.245       .  S
In767       O775   2.239       .  S
In767       O776   2.236       .  S
In767       O779   2.233       .  S
C768        O774   1.268       .  A
C768        O776   1.267       .  A
O769        C777   1.256       .  A
O770        C777   1.261       .  A
C771        O778   1.264       .  A
C771        O772   1.263       .  A
C771        C865   1.532       .  S
C773        O775   1.258       .  A
C773        O779   1.261       .  A
C773        C786   1.459       .  S
In780       O782   2.234       .  S
In780       O783   2.202   1_556  S
In780       O791   2.231       .  S
In780       O785   2.234       .  S
In780       O787   2.253       .  S
In780       O788   2.230       .  S
In780       O789   2.251       .  S
In780       O792   2.247       .  S
C781        O787   1.264       .  A
C781        O789   1.266       .  A
O782        C790   1.257   1_556  A
O783        C790   1.264       .  A
C784        O791   1.264       .  A
C784        O785   1.267       .  A
C784       C1014   1.484       .  S
C786        O788   1.257       .  A
C786        O792   1.264       .  A
C793        C794   1.540       .  S
C793        C799   1.540       .  S
C793        C797   1.539       .  S
C794        H801   1.087       .  S
C794        C795   1.359       .  D
C795        C796   1.577       .  S
C795        C819   1.524       .  S
C796        C800   1.578       .  S
C796        C798   1.552       .  S
C796        H802   1.105       .  S
C797        H803   1.085       .  S
C797        C798   1.379       .  D
C798        C810   1.509       .  S
C799        H804   1.086       .  S
C799        C800   1.365       .  D
C805        C806   1.540       .  S
C805        C811   1.539       .  S
C805        C809   1.538       .  S
C806        H813   1.086       .  S
C806        C807   1.364       .  D
C807        C808   1.577       .  S
C808        C812   1.578       .  S
C808        C810   1.553       .  S
C808        H814   1.105       .  S
C809        H815   1.085       .  S
C809        C810   1.379       .  D
C811        H816   1.086       .  S
C811        C812   1.360       .  D
C812        C836   1.526       .  S
C817        C893   1.514       .  S
C817        C818   1.535       .  S
C817        C823   1.540       .  S
C817        C821   1.537       .  S
C818        H825   1.086       .  S
C818        C819   1.360       .  D
C819        C820   1.578       .  S
C820        C824   1.581       .  S
C820        C822   1.556       .  S
C820        H826   1.105       .  S
C821        H827   1.081       .  S
C821        C822   1.377       .  D
C822        C834   1.508       .  S
C823        H828   1.087       .  S
C823        C824   1.360       .  D
C829        C919   1.529       .  S
C829        C830   1.543       .  S
C829        C835   1.538       .  S
C829        C833   1.542       .  S
C830        H837   1.086       .  S
C830        C831   1.363       .  D
C831        C832   1.576       .  S
C832        C836   1.577       .  S
C832        C834   1.548       .  S
C832        H838   1.105       .  S
C833        H839   1.081       .  S
C833        C834   1.382       .  D
C835        H840   1.086       .  S
C835        C836   1.362       .  D
C841        C971   1.519       .  S
C841        C842   1.540       .  S
C841        C847   1.537       .  S
C841        C845   1.539       .  S
C842        H849   1.087   1_556  S
C842        C843   1.361   1_556  D
C843        C844   1.581   1_554  S
C844        C848   1.579       .  S
C844        C846   1.553       .  S
C844        H850   1.105       .  S
C845        H851   1.079       .  S
C845        C846   1.378       .  D
C846        C858   1.510   1_655  S
C847        H852   1.086       .  S
C847        C848   1.362       .  D
C848        C872   1.528       .  S
C853        C945   1.525       .  S
C853        C854   1.536       .  S
C853        C859   1.544       .  S
C853        C857   1.541       .  S
C854        H861   1.086       .  S
C854        C855   1.360       .  D
C855        C856   1.576       .  S
C855        C879   1.523       .  S
C856        C860   1.578       .  S
C856        C858   1.551       .  S
C856        H862   1.105       .  S
C857        H863   1.079       .  S
C857        C858   1.381       .  D
C859        H864   1.086   1_556  S
C859        C860   1.365       .  D
C865        C866   1.543       .  S
C865        C871   1.541       .  S
C865        C869   1.541       .  S
C866        H873   1.086       .  S
C866        C867   1.366   1_565  D
C867        C868   1.576       .  S
C868        C872   1.578       .  S
C868        C870   1.549   1_545  S
C868        H874   1.105       .  S
C869        H875   1.083       .  S
C869        C870   1.382       .  D
C870        C882   1.509   1_655  S
C871        H876   1.087       .  S
C871        C872   1.361   1_565  D
C877        C878   1.537       .  S
C877        C883   1.540       .  S
C877        C881   1.536       .  S
C878        H885   1.086       .  S
C878        C879   1.359   1_565  D
C879        C880   1.580       .  S
C880        C884   1.581       .  S
C880        C882   1.555   1_545  S
C880        H886   1.105       .  S
C881        H887   1.083       .  S
C881        C882   1.376       .  D
C883        H888   1.086       .  S
C883        C884   1.363   1_565  D
In889       O891   2.216       .  S
In889       O892   2.267       .  S
In889       O900   2.259       .  S
In889       O894   2.249       .  S
In889       O896   2.242       .  S
In889       O897   2.214       .  S
In889       O898   2.229       .  S
In889       O901   2.205       .  S
C890        O896   1.268       .  A
C890        O898   1.263       .  A
C890        C981   1.468       .  S
O891        C899   1.254       .  A
O892        C899   1.265       .  A
C893        O900   1.264       .  A
C893        O894   1.263       .  A
C895        O897   1.259       .  A
C895        O901   1.260       .  A
C899        C912   1.454       .  S
In902       O904   2.234       .  S
In902       O905   2.210       .  S
In902       O913   2.249       .  S
In902       O907   2.222       .  S
In902       O909   2.258       .  S
In902       O910   2.226       .  S
In902       O911   2.242       .  S
In902       O914   2.247       .  S
C903        O909   1.265       .  A
C903        O911   1.263       .  A
C903        C968   1.471       .  S
O904        C912   1.259       .  A
O905        C912   1.266       .  A
C906        O913   1.265       .  A
C906        O907   1.263       .  A
C906       C1004   1.485       .  S
C908        O910   1.257       .  A
C908        O914   1.262       .  A
In915       O917   2.212       .  S
In915       O918   2.225       .  S
In915       O926   2.268       .  S
In915       O920   2.283       .  S
In915       O922   2.240       .  S
In915       O923   2.268       .  S
In915       O924   2.248       .  S
In915       O927   2.224       .  S
C916        O922   1.265       .  A
C916        O924   1.270       .  A
C916        C955   1.475       .  S
O917        C925   1.260       .  A
O918        C925   1.259       .  A
C919        O926   1.264       .  A
C919        O920   1.265       .  A
C921        O923   1.263       .  A
C921        O927   1.255       .  A
C921        C934   1.457       .  S
In928       O930   2.252       .  S
In928       O931   2.224       .  S
In928       O939   2.220       .  S
In928       O933   2.260       .  S
In928       O935   2.244       .  S
In928       O936   2.211       .  S
In928       O937   2.258       .  S
In928       O940   2.242       .  S
C929        O935   1.266       .  A
C929        O937   1.267       .  A
C929        C942   1.477       .  S
O930        C938   1.260       .  A
O931        C938   1.257       .  A
C932        O939   1.263       .  A
C932        O933   1.268       .  A
C932       C1007   1.490       .  S
C934        O936   1.262       .  A
C934        O940   1.258       .  A
In941       O943   2.207       .  S
In941       O944   2.264       .  S
In941       O952   2.271       .  S
In941       O946   2.270       .  S
In941       O948   2.258       .  S
In941       O949   2.239       .  S
In941       O950   2.246       .  S
In941       O953   2.207   1_556  S
C942        O948   1.269       .  A
C942        O950   1.266       .  A
O943        C951   1.255       .  A
O944        C951   1.263       .  A
C945        O952   1.264       .  A
C945        O946   1.263       .  A
C947        O949   1.258   1_554  A
C947        O953   1.261       .  A
C951        C964   1.451       .  S
In954       O956   2.241       .  S
In954       O957   2.198       .  S
In954       O965   2.229       .  S
In954       O959   2.236       .  S
In954       O961   2.250       .  S
In954       O962   2.219       .  S
In954       O963   2.255       .  S
In954       O966   2.265       .  S
C955        O961   1.264       .  A
C955        O963   1.267       .  A
O956        C964   1.259       .  A
O957        C964   1.262       .  A
C958        O965   1.265       .  A
C958        O959   1.266       .  A
C958        C997   1.480       .  S
C960        O962   1.255       .  A
C960        O966   1.265       .  A
In967       O969   2.210   1_556  S
In967       O970   2.221       .  S
In967       O978   2.263       .  S
In967       O972   2.256       .  S
In967       O974   2.244       .  S
In967       O975   2.261       .  S
In967       O976   2.233       .  S
In967       O979   2.205       .  S
C968        O974   1.267       .  A
C968        O976   1.265       .  A
O969        C977   1.263       .  A
O970        C977   1.259   1_556  A
C971        O978   1.264       .  A
C971        O972   1.264       .  A
C973        O975   1.267       .  A
C973        O979   1.253       .  A
C973        C986   1.449       .  S
In980       O982   2.241       .  S
In980       O983   2.231       .  S
In980       O991   2.226       .  S
In980       O985   2.231       .  S
In980       O987   2.243       .  S
In980       O988   2.204       .  S
In980       O989   2.250       .  S
In980       O992   2.233       .  S
C981        O987   1.264       .  A
C981        O989   1.263       .  A
O982        C990   1.263       .  A
O983        C990   1.257       .  A
C984        O991   1.264       .  A
C984        O985   1.263       .  A
C984        C994   1.479       .  S
C986        O988   1.264       .  A
C986        O992   1.258       .  A
C993        C994   1.406       .  A
C993        C998   1.400   1_655  A
C993       H1000   1.083       .  S
C994        C995   1.414       .  A
C995        C996   1.397   1_655  A
C995      Br1002   1.923       .  S
C996        C997   1.404       .  A
C996       H1001   1.085       .  S
C997        C998   1.409       .  A
C998       Br999   1.919       .  S
C1003      C1004   1.404       .  A
C1003      C1008   1.397       .  A
C1003      H1010   1.082       .  S
C1004      C1005   1.410       .  A
C1005      C1006   1.405       .  A
C1005     Br1012   1.919       .  S
C1006      C1007   1.408       .  A
C1006      H1011   1.079       .  S
C1007      C1008   1.413       .  A
C1008     Br1009   1.919   1_556  S
C1013      C1014   1.405       .  A
C1013      C1018   1.400   1_655  A
C1013      H1020   1.083       .  S
C1014      C1015   1.416   1_556  A
C1015      C1016   1.398   1_655  A
C1015     Br1022   1.922       .  S
C1016      C1017   1.403   1_554  A
C1016      H1021   1.085       .  S
C1017      C1018   1.409       .  A
C1018     Br1019   1.919       .  S
C1023      C1024   1.405       .  A
C1023      C1028   1.401       .  A
C1023      H1030   1.077       .  S
C1024      C1025   1.412       .  A
C1025      C1026   1.394       .  A
C1025     Br1032   1.922       .  S
C1026      C1027   1.404       .  A
C1026      H1031   1.081       .  S
C1027      C1028   1.410       .  A
