geometry optimzed in LAMMPS
_audit_creation_date              2020-11-30 
_audit_creation_method            'lammps2cif' 
_symmetry_space_group_name_H-M    'P1' 
_symmetry_Int_Tables_number       1 
_symmetry_cell_setting            triclinic 
loop_ 
_symmetry_equiv_pos_as_xyz 
  x,y,z 
_cell_length_a                    38.24227397 
_cell_length_b                    39.23615538185146 
_cell_length_c                    31.926752956419808 
_cell_angle_alpha                 100.24882990428812 
_cell_angle_beta                  89.90321362809009 
_cell_angle_gamma                 89.60535201725587 
loop_ 
_atom_site_label 
_atom_site_type_symbol 
_atom_site_fract_x 
_atom_site_fract_y 
_atom_site_fract_z 
_atom_site_charge 
C1          C  0.83346500  0.20079249  0.04652070     0.79900
N2          N  0.84438548  0.18424360  0.00771924    -0.78400
C3          C  0.83466142  0.19571448  0.97183220     0.82300
N4          N  0.81359215  0.22408984  0.97504301    -0.78400
C5          C  0.80246710  0.24112535  0.01366810     0.82400
N6          N  0.81265701  0.22937578  0.04939000    -0.80100
C7          C  0.23770256  0.97458582  0.91459095     0.79900
N8          N  0.26168810  0.94860926  0.91348076    -0.78400
C9          C  0.27241608  0.93890735  0.95029664     0.82300
N10         N  0.25827358  0.95475835  0.98784271    -0.78400
C11         C  0.23399995  0.98029952  0.98930677     0.82400
N12         N  0.22406174  0.99027658  0.95252329    -0.80100
Zr13       Zr  0.48952309  0.59842022  0.90465323     2.17500
O14         O  0.43272010  0.59886522  0.87004237    -0.51700
O15         O  0.52188301  0.62452558  0.85303503    -0.74900
O16         O  0.46317339  0.65607514  0.91907905    -0.81700
O17         O  0.50715950  0.50530658  0.85016691    -0.83400
O18         O  0.47441148  0.68067598  0.98760814    -0.79000
O19         O  0.48000876  0.55524724  0.84136784    -0.90700
O20         O  0.57898999  0.62753295  0.87254968    -0.76600
O21         O  0.52971722  0.63481969  0.94792155    -0.86100
O22         O  0.54458716  0.56927601  0.89521823    -0.85800
O23         O  0.46661678  0.60438859  0.97580563    -0.72600
O24         O  0.48089491  0.54359053  0.92643765    -0.84700
Zr25       Zr  0.55525112  0.55664185  0.03262648     2.26400
Zr26       Zr  0.50845771  0.63964528  0.01913932     2.06300
Zr27       Zr  0.53667589  0.51528063  0.91832526     2.10000
Zr28       Zr  0.58446640  0.60562660  0.93900063     1.78800
O29         O  0.50875467  0.45900084  0.91129647    -0.93500
O30         O  0.60371987  0.66549976  0.95629350    -0.41300
O31         O  0.57803289  0.55088889  0.96161801    -0.78000
O32         O  0.56429922  0.61149879  0.01111032    -0.96600
O33         O  0.50019253  0.58547860  0.04152611    -0.90000
O34         O  0.51497666  0.52032250  0.98913914    -0.92800
C35         C  0.55396149  0.63207621  0.84724069     1.01000
C36         C  0.48849662  0.52334143  0.82868213     1.13900
C37         C  0.46079792  0.68110530  0.95100536     1.04700
O38         O  0.54047956  0.69396114  0.03137571    -0.94900
O39         O  0.53021119  0.64705206  0.09149644    -0.90700
O40         O  0.55653866  0.59669081  0.10018263    -0.83800
C41         C  0.54625971  0.62792010  0.11410515     1.11300
O42         O  0.40231818  0.55329797  0.96660643    -0.96900
Zr43       Zr  0.46000798  0.54947042  0.99807906     1.88900
O44         O  0.52401462  0.52583990  0.08026951    -0.73600
O45         O  0.46141372  0.66053231  0.06882048    -0.52800
O46         O  0.41846124  0.57748611  0.05154965    -0.97500
O47         O  0.43712730  0.49117867  0.97576406    -0.54700
O48         O  0.46690765  0.52280127  0.06069632    -0.74100
C49         C  0.49219766  0.51699972  0.08497202     0.98300
O50         O  0.61248801  0.55881195  0.06661989    -0.62900
O51         O  0.58119623  0.49389006  0.86515228    -0.57700
O52         O  0.58647795  0.50152779  0.01786903    -0.94400
O53         O  0.57676895  0.47811619  0.94858434    -0.92800
O54         O  0.63054062  0.57521356  0.89423584    -0.93200
O55         O  0.64115707  0.61175753  0.97399347    -0.92000
C56         C  0.59106214  0.47782176  0.98491416     1.17100
H57         H  0.55193005  0.56515876  0.86579716     0.33000
H58         H  0.58112793  0.62480823  0.02979472     0.43900
H59         H  0.51380961  0.49773249  0.99713529     0.37400
H60         H  0.44412800  0.61600256  0.97758535     0.33900
H61         H  0.62409545  0.66673764  0.93745515     0.25700
H62         H  0.46428240  0.68599099  0.07509598     0.31600
H63         H  0.40557685  0.55826124  0.06073213     0.37500
H64         H  0.62843747  0.55074529  0.89776012     0.32000
H65         H  0.57606714  0.46893915  0.85636715     0.30900
H66         H  0.51911569  0.44516077  0.88521467     0.32600
H67         H  0.45492088  0.47546729  0.98461717     0.31500
H68         H  0.64167723  0.59331898  0.99150282     0.35500
H69         H  0.62910711  0.54925125  0.04363857     0.28300
H70         H  0.43418728  0.61718311  0.85241602     0.32500
H71         H  0.38636552  0.54067236  0.98282661     0.35300
H72         H  0.57532800  0.50424130  0.83992114     0.27900
H73         H  0.61845030  0.58370354  0.07323434     0.40800
H74         H  0.56290012  0.68858676  0.04431846     0.30900
H75         H  0.58523216  0.67909684  0.94494925     0.38500
H76         H  0.43869043  0.48694952  0.94429949     0.30300
H77         H  0.43971058  0.65682691  0.05180697     0.30400
H78         H  0.41599550  0.60796509  0.89310687     0.30700
C79         C  0.38683793  0.39182074  0.39157694     0.79900
N80         N  0.36275731  0.36627234  0.38974082    -0.78400
C81         C  0.34908386  0.35830688  0.42603598     0.82300
N82         N  0.35988090  0.37576542  0.46435966    -0.78400
C83         C  0.38443703  0.40087215  0.46674468     0.82400
N84         N  0.39760679  0.40887583  0.43018648    -0.80100
C85         C  0.65266621  0.76610982  0.54268950     0.79900
N86         N  0.67802838  0.79045834  0.54655101    -0.78400
C87         C  0.68875487  0.80399743  0.51249118     0.82300
N88         N  0.67362003  0.79300927  0.47402097    -0.78400
C89         C  0.64818224  0.76855985  0.46948866     0.82400
N90         N  0.63798301  0.75510707  0.50396087    -0.80100
Zr91       Zr  0.04715313  0.11014801  0.41635804     2.17500
O92         O  0.04763717  0.16738874  0.39656744    -0.51700
O93         O  0.07244929  0.07864007  0.35086178    -0.74900
O94         O  0.10553249  0.13417405  0.42030601    -0.81700
O95         O  0.95181880  0.09754517  0.38372299    -0.83400
O96         O  0.13496009  0.11691380  0.47482156    -0.79000
O97         O  0.00184929  0.12395773  0.36872024    -0.90700
O98         O  0.07517140  0.02188002  0.35672909    -0.76600
O99         O  0.08297064  0.06631773  0.43729320    -0.86100
O100        O  0.01445292  0.05798371  0.40188792    -0.85800
O101        O  0.05948773  0.12977838  0.49043306    -0.72600
O102        O  0.99496354  0.12227622  0.45811476    -0.84700
Zr103      Zr  0.00876459  0.04422295  0.54080148     2.26400
Zr104      Zr  0.09412737  0.08467875  0.51134004     2.06300
Zr105      Zr  0.96296038  0.06948568  0.44436282     2.10000
Zr106      Zr  0.04982448  0.01467320  0.42441059     1.78800
O107        O  0.90946960  0.10354602  0.45884873    -0.93500
O108        O  0.10703501  0.98663307  0.42180163    -0.41300
O109        O  0.99754635  0.02486706  0.46634387    -0.78000
O110        O  0.06128422  0.03211751  0.49889777    -0.96600
O111        O  0.04246178  0.09583581  0.55385804    -0.90000
O112        O  0.97377042  0.08815414  0.51848250    -0.92800
C113        C  0.08067455  0.04691180  0.33658150     1.01000
C114        C  0.96947313  0.11626315  0.36225856     1.13900
C115        C  0.13288688  0.13323079  0.44334902     1.04700
O116        O  0.14660104  0.04864889  0.49812515    -0.94900
O117        O  0.10381865  0.05967782  0.57457918    -0.90700
O118        O  0.05341631  0.03523657  0.59249966    -0.83800
C119        C  0.08595066  0.04294654  0.59824647     1.11300
O120        O  0.01486539  0.19754914  0.51590675    -0.96900
Zr121      Zr  0.00736199  0.13966231  0.53237163     1.88900
O122        O  0.98177449  0.07607253  0.60574142    -0.73600
O123        O  0.12015026  0.12885038  0.56540804    -0.52800
O124        O  0.04285435  0.17365241  0.58785502    -0.97500
O125        O  0.95160558  0.17046165  0.53522136    -0.54700
O126        O  0.98113199  0.13280280  0.59939593    -0.74100
C127        C  0.97423142  0.10812493  0.61955446     0.98300
O128        O  0.01003108  0.98580193  0.55733908    -0.62900
O129        O  0.93531204  0.02501846  0.39197998    -0.57700
O130        O  0.95033802  0.01856561  0.53462872    -0.94400
O131        O  0.92349829  0.03483261  0.47770394    -0.92800
O132        O  0.01436227  0.97677521  0.37281640    -0.93200
O133        O  0.04680546  0.95590299  0.43894848    -0.92000
C134        C  0.92420139  0.01869130  0.50922951     1.17100
H135        H  0.00876484  0.05182511  0.37200613     0.33000
H136        H  0.07438702  0.01388256  0.50856596     0.43900
H137        H  0.95183144  0.09111152  0.53370803     0.37400
H138        H  0.07256193  0.15113155  0.49419671     0.33900
H139        H  0.10853133  0.97233996  0.39297137     0.25700
H140        H  0.14558605  0.12392690  0.56349337     0.31600
H141        H  0.02584268  0.18626678  0.60850165     0.37500
H142        H  0.03137410  0.96449856  0.35191255     0.32000
H143        H  0.91587786  0.03706702  0.38007338     0.30900
H144        H  0.89090394  0.08849160  0.44418313     0.32600
H145        H  0.95075805  0.18493562  0.56397807     0.31500
H146        H  0.02997140  0.95743797  0.46281628     0.35500
H147        H  0.99537960  0.97167029  0.53538567     0.28300
H148        H  0.06426902  0.16555009  0.37244955     0.32500
H149        H  0.00685865  0.21379556  0.54152484     0.35300
H150        H  0.95240490  0.01958695  0.36838799     0.27900
H151        H  0.03404412  0.97707626  0.55006773     0.40800
H152        H  0.13995273  0.02596782  0.50513574     0.30900
H153        H  0.12394954  0.00552700  0.42118212     0.38500
H154        H  0.93367059  0.15252079  0.53603843     0.30300
H155        H  0.11728546  0.15081796  0.55454925     0.30400
H156        H  0.05916803  0.18275170  0.42045791     0.30700
C157        C  0.89288585  0.99802219  0.51510316    -0.03600
C158        C  0.86125906  0.00413656  0.49514381    -0.06200
C159        C  0.83293997  0.98196226  0.49549985    -0.21200
C160        C  0.83538880  0.95314074  0.51580244     0.24500
C161        C  0.86662596  0.94772706  0.53721028    -0.18800
C162        C  0.89497763  0.97008674  0.53701903    -0.08800
C163        C  0.80561253  0.92852455  0.51129181    -0.19100
C164        C  0.80209606  0.90270440  0.53363393    -0.23900
C165        C  0.77260220  0.87792797  0.52720960     0.26500
C166        C  0.76229154  0.86205918  0.56119357    -0.20600
C167        C  0.73481699  0.83846945  0.55649842    -0.10300
C168        C  0.71731122  0.82974675  0.51737865    -0.10800
C169        C  0.72799782  0.84521614  0.48303881    -0.03700
C170        C  0.75541702  0.86900442  0.48784249    -0.18800
H171        H  0.85864647  0.02560886  0.47820098     0.10200
H172        H  0.80927410  0.98689670  0.47886875     0.10300
H173        H  0.87007470  0.92564420  0.55274625     0.10000
H174        H  0.91907375  0.96454454  0.55235548     0.11100
H175        H  0.78536872  0.93226477  0.48870242     0.11200
H176        H  0.82034710  0.90024037  0.55886195     0.13100
H177        H  0.77538132  0.86814845  0.59164980     0.09600
H178        H  0.72752357  0.82687607  0.58356649     0.11700
H179        H  0.71536224  0.83880071  0.45234400     0.08300
H180        H  0.76347139  0.87977181  0.46045531     0.11000
C181        C  0.32181575  0.33174054  0.42405534    -0.03600
C182        C  0.29431019  0.33647413  0.45369777    -0.06200
C183        C  0.26840815  0.31143808  0.45233012    -0.21200
C184        C  0.27019823  0.28072603  0.42229473     0.24500
C185        C  0.29753981  0.27597837  0.39232017    -0.18800
C186        C  0.32295268  0.30157951  0.39286261    -0.08800
C187        C  0.24239216  0.25479127  0.42216453    -0.19100
C188        C  0.24866322  0.22049416  0.41614201    -0.23900
C189        C  0.21999270  0.19602433  0.41977734     0.26500
C190        C  0.22496641  0.16904777  0.44274863    -0.20600
C191        C  0.19682970  0.14815789  0.45009953    -0.10300
C192        C  0.16352182  0.15340391  0.43357392    -0.10800
C193        C  0.15921203  0.17937378  0.40876338    -0.03700
C194        C  0.18707897  0.20051220  0.40210018    -0.18800
H195        H  0.29263020  0.35976700  0.47762591     0.10200
H196        H  0.24723496  0.31575770  0.47529690     0.10300
H197        H  0.29893592  0.25279524  0.36821482     0.10000
H198        H  0.34383957  0.29754681  0.36951014     0.11100
H199        H  0.21618685  0.26444200  0.43091559     0.11200
H200        H  0.27533454  0.21069545  0.41222312     0.13100
H201        H  0.25024480  0.16505974  0.45642861     0.09600
H202        H  0.20102975  0.12822331  0.46909498     0.11700
H203        H  0.13398304  0.18412874  0.39547383     0.08300
H204        H  0.18278793  0.22073590  0.38354969     0.11000
C205        C  0.48405973  0.49933729  0.12114578    -0.03600
C206        C  0.50992660  0.49504210  0.15109358    -0.06200
C207        C  0.50165199  0.48042533  0.18666643    -0.21200
C208        C  0.46751367  0.46946282  0.19293584     0.24500
C209        C  0.44175616  0.47311557  0.16258300    -0.18800
C210        C  0.44999622  0.48776513  0.12704594    -0.08800
C211        C  0.45924279  0.45647591  0.23271454    -0.19100
C212        C  0.43194272  0.43573027  0.23644952    -0.23900
C213        C  0.42240655  0.42407770  0.27671300     0.26500
C214        C  0.40145282  0.39462220  0.27469082    -0.20600
C215        C  0.39039863  0.38370965  0.31187247    -0.10300
C216        C  0.39995140  0.40219927  0.35201308    -0.10800
C217        C  0.42102918  0.43166355  0.35403180    -0.03700
C218        C  0.43200941  0.44260164  0.31686314    -0.18800
H219        H  0.53645242  0.50362886  0.14759286     0.10200
H220        H  0.52192518  0.47802723  0.20964915     0.10300
H221        H  0.41491689  0.46587734  0.16677801     0.10000
H222        H  0.42941400  0.49068655  0.10467124     0.11100
H223        H  0.47691729  0.46363297  0.25933018     0.11200
H224        H  0.41633804  0.42591426  0.20861255     0.13100
H225        H  0.39342872  0.38008774  0.24418371     0.09600
H226        H  0.37408067  0.36097853  0.30910210     0.11700
H227        H  0.42849720  0.44680247  0.38439626     0.08300
H228        H  0.44711425  0.46610446  0.31992634     0.11000
C229        C  0.39701490  0.41898399  0.50875362    -0.03600
C230        C  0.42390314  0.44356968  0.51149891    -0.06200
C231        C  0.43648997  0.45973163  0.55112574    -0.21200
C232        C  0.42277543  0.45146091  0.58880047     0.24500
C233        C  0.39544668  0.42739938  0.58620773    -0.18800
C234        C  0.38270487  0.41137984  0.54662465    -0.08800
C235        C  0.43651195  0.46936374  0.63026844    -0.19100
C236        C  0.43673477  0.45489021  0.66543291    -0.23900
C237        C  0.45047058  0.47304938  0.70668409     0.26500
C238        C  0.46682170  0.45373867  0.73411997    -0.20600
C239        C  0.47961936  0.47009085  0.77349387    -0.10300
C240        C  0.47567622  0.50609272  0.78655353    -0.10800
C241        C  0.45887223  0.52535448  0.75918934    -0.03700
C242        C  0.44644878  0.50901841  0.71962465    -0.18800
H243        H  0.43544663  0.45020200  0.48304215     0.10200
H244        H  0.45730189  0.47847690  0.55235596     0.10300
H245        H  0.38346305  0.42129247  0.61467517     0.10000
H246        H  0.36166351  0.39294803  0.54577226     0.11100
H247        H  0.44833774  0.49459992  0.63132049     0.11200
H248        H  0.42837500  0.42826426  0.66353483     0.13100
H249        H  0.46994296  0.42595036  0.72488885     0.09600
H250        H  0.49226137  0.45443216  0.79385708     0.11700
H251        H  0.45522280  0.55308205  0.76833226     0.08300
H252        H  0.43310069  0.52446459  0.69959178     0.11000
C253        C  0.55344563  0.64289649  0.15925553    -0.03600
C254        C  0.56443619  0.62160882  0.18786364    -0.06200
C255        C  0.57217726  0.63587103  0.23010065    -0.21200
C256        C  0.56957785  0.67173332  0.24463676     0.24500
C257        C  0.55737917  0.69293086  0.21645513    -0.18800
C258        C  0.54945183  0.67865292  0.17425603    -0.08800
C259        C  0.57983375  0.68585901  0.28925010    -0.19100
C260        C  0.58984526  0.71889911  0.30253032    -0.23900
C261        C  0.60296216  0.73204171  0.34619202     0.26500
C262        C  0.62559672  0.76048130  0.35248129    -0.20600
C263        C  0.64010827  0.77246786  0.39249102    -0.10300
C264        C  0.63190519  0.75654189  0.42735138    -0.10800
C265        C  0.60807790  0.72895877  0.42145936    -0.03700
C266        C  0.59367745  0.71688939  0.38137464    -0.18800
H267        H  0.56720045  0.59388691  0.17760891     0.10200
H268        H  0.58093458  0.61885858  0.25128923     0.10300
H269        H  0.55370461  0.72049695  0.22676337     0.10000
H270        H  0.54058463  0.69575370  0.15324727     0.11100
H271        H  0.58167752  0.66757198  0.31097809     0.11200
H272        H  0.59124234  0.73640746  0.27984339     0.13100
H273        H  0.63274943  0.77298485  0.32608883     0.09600
H274        H  0.65797041  0.79407639  0.39596197     0.11700
H275        H  0.60074223  0.71641231  0.44773103     0.08300
H276        H  0.57524338  0.69581145  0.37821449     0.11000
C277        C  0.56269669  0.64644694  0.80845997    -0.03600
C278        C  0.53640290  0.65187152  0.77952375    -0.06200
C279        C  0.54461563  0.66500869  0.74280928    -0.21200
C280        C  0.57918391  0.67333527  0.73418093     0.24500
C281        C  0.60567505  0.66737076  0.76266144    -0.18800
C282        C  0.59747535  0.65421038  0.79942041    -0.08800
C283        C  0.58649183  0.68757082  0.69488086    -0.19100
C284        C  0.61433782  0.70756225  0.69067858    -0.23900
C285        C  0.62195157  0.72302635  0.65230084     0.26500
C286        C  0.64808178  0.74827765  0.65535749    -0.20600
C287        C  0.65771527  0.76248179  0.61998381    -0.10300
C288        C  0.64146662  0.75172069  0.58042925    -0.10800
C289        C  0.61481684  0.72692291  0.57738166    -0.03700
C290        C  0.60517031  0.71265153  0.61284969    -0.18800
H291        H  0.50937077  0.64596107  0.78516266     0.10200
H292        H  0.52376456  0.66902495  0.72123685     0.10300
H293        H  0.63282500  0.67226830  0.75646976     0.10000
H294        H  0.61848878  0.64992463  0.82062026     0.11100
H295        H  0.56703155  0.68294738  0.66992995     0.11200
H296        H  0.63207879  0.71413326  0.71733382     0.13100
H297        H  0.66142918  0.75686089  0.68524011     0.09600
H298        H  0.67824260  0.78164898  0.62364843     0.11700
H299        H  0.60168097  0.71813688  0.54742251     0.08300
H300        H  0.58523584  0.69298847  0.60859940     0.11000
C301        C  0.21705409  0.99547205  0.03028233    -0.03600
C302        C  0.19042315  0.02061403  0.03199060    -0.06200
C303        C  0.17296932  0.03311532  0.07027242    -0.21200
C304        C  0.18141731  0.02043941  0.10742491     0.24500
C305        C  0.20877565  0.99613798  0.10606337    -0.18800
C306        C  0.22635443  0.98379766  0.06794823    -0.08800
C307        C  0.16138468  0.03289580  0.14717722    -0.19100
C308        C  0.15443070  0.01201686  0.17537818    -0.23900
C309        C  0.13410396  0.02225963  0.21555089     0.26500
C310        C  0.12432032  0.99608434  0.23792503    -0.20600
C311        C  0.10658141  0.00404001  0.27672385    -0.10300
C312        C  0.09811914  0.03853470  0.29434566    -0.10800
C313        C  0.10751112  0.06483348  0.27178372    -0.03700
C314        C  0.12539035  0.05684918  0.23288808    -0.18800
H315        H  0.18265118  0.03027534  0.00364397     0.11200
H316        H  0.15220015  0.05208035  0.07063802     0.10300
H317        H  0.21673019  0.98667633  0.13446096     0.10000
H318        H  0.24695326  0.96472595  0.06797641     0.11100
H319        H  0.15052812  0.05887682  0.15155593     0.11200
H320        H  0.16329563  0.98524658  0.16803132     0.13100
H321        H  0.13070499  0.96923917  0.22549924     0.09600
H322        H  0.09982099  0.98306355  0.29308987     0.11700
H323        H  0.10158560  0.09171690  0.28450087     0.08300
H324        H  0.13285191  0.07797632  0.21727556     0.11000
C325        C  0.10459969  0.03150238  0.63414398    -0.03600
C326        C  0.09005008  0.00649593  0.65538825    -0.06200
C327        C  0.10836814  0.99495633  0.68816784    -0.21200
C328        C  0.14124883  0.00859564  0.70102483     0.24500
C329        C  0.15599302  0.03345356  0.67968151    -0.18800
C330        C  0.13788403  0.04471808  0.64658618    -0.08800
C331        C  0.15954313  0.99604265  0.73643413    -0.19100
C332        C  0.18075369  0.01624757  0.76375338    -0.23900
C333        C  0.19637506  0.00481678  0.80153483     0.26500
C334        C  0.20204678  0.02954412  0.83834011    -0.20600
C335        C  0.21580773  0.01969553  0.87493653    -0.10300
C336        C  0.22514657  0.98503943  0.87504044    -0.10800
C337        C  0.22055891  0.96038460  0.83786031    -0.03700
C338        C  0.20598186  0.97010276  0.80149015    -0.18800
H339        H  0.06469375  0.99548739  0.64634394     0.10200
H340        H  0.09661643  0.97557420  0.70392288     0.10300
H341        H  0.18170573  0.04383976  0.68801719     0.10000
H342        H  0.15003323  0.06381824  0.63072232     0.11100
H343        H  0.15297801  0.97040808  0.74227522     0.11200
H344        H  0.18443211  0.04308319  0.76052314     0.13100
H345        H  0.19508200  0.05645478  0.83906608     0.09600
H346        H  0.21919979  0.03920400  0.90321454     0.11700
H347        H  0.22739285  0.93346967  0.83729462     0.08300
H348        H  0.20259784  0.95052890  0.77332723     0.11000
C349        C  0.44037901  0.71227345  0.94560311    -0.03600
C350        C  0.42291581  0.71353675  0.90721728    -0.06200
C351        C  0.40188541  0.74195268  0.90299737    -0.21200
C352        C  0.39807620  0.76996614  0.93674906     0.24500
C353        C  0.41591365  0.76896778  0.97510745    -0.18800
C354        C  0.43688252  0.74049242  0.97938078    -0.08800
C355        C  0.37384853  0.79863435  0.93125494    -0.19100
C356        C  0.37428971  0.83012304  0.95612263    -0.23900
C357        C  0.34830368  0.85769386  0.95272216     0.26500
C358        C  0.34032974  0.88163862  0.98953853    -0.20600
C359        C  0.31579831  0.90787681  0.98845880    -0.10300
C360        C  0.29896554  0.91120722  0.95026902    -0.10800
C361        C  0.30749745  0.88771440  0.91297521    -0.03700
C362        C  0.33187833  0.86105381  0.91418731    -0.18800
H363        H  0.42493332  0.69226604  0.88057394     0.10200
H364        H  0.38828072  0.74191704  0.87325706     0.10300
H365        H  0.41302084  0.78939338  0.00247762     0.10000
H366        H  0.44977608  0.74033654  0.00952990     0.11100
H367        H  0.35459757  0.79323208  0.90603963     0.11200
H368        H  0.39331565  0.83580278  0.98148330     0.13100
H369        H  0.35280241  0.87974643  0.01949745     0.09600
H370        H  0.31013739  0.92569137  0.01770981     0.11700
H371        H  0.29508924  0.88970172  0.88303239     0.08300
H372        H  0.33813249  0.84355121  0.88491990     0.11000
C373        C  0.95129757  0.12987202  0.32772729    -0.03600
C374        C  0.96473875  0.15844818  0.31212444    -0.06200
C375        C  0.94770699  0.17120411  0.27939822    -0.21200
C376        C  0.91729917  0.15532885  0.26106244     0.24500
C377        C  0.90352186  0.12699950  0.27694527    -0.18800
C378        C  0.92032206  0.11447999  0.31004931    -0.08800
C379        C  0.90049328  0.16926652  0.22582900    -0.19100
C380        C  0.88235385  0.14941686  0.19473269    -0.23900
C381        C  0.86850023  0.16296314  0.15760536     0.26500
C382        C  0.86722906  0.14081529  0.11804440    -0.20600
C383        C  0.85573751  0.15312765  0.08199553    -0.10300
C384        C  0.84452404  0.18768852  0.08504792    -0.10800
C385        C  0.84461132  0.20955463  0.12495692    -0.03700
C386        C  0.85666234  0.19736716  0.16091637    -0.18800
H387        H  0.98832474  0.17112129  0.32539938     0.10200
H388        H  0.95861572  0.19325017  0.26791754     0.10300
H389        H  0.87957751  0.11474689  0.26429032     0.10000
H390        H  0.90923272  0.09252138  0.32152058     0.11100
H391        H  0.90568655  0.19606871  0.22358552     0.11200
H392        H  0.88025137  0.12178157  0.19439043     0.13100
H393        H  0.87590404  0.11412794  0.11485263     0.09600
H394        H  0.85559045  0.13554234  0.05171872     0.11700
H395        H  0.83596657  0.23624347  0.12825762     0.08300
H396        H  0.85646056  0.21480929  0.19126668     0.11000
C397        C  0.95550710  0.11779380  0.66083843    -0.03600
C398        C  0.94437261  0.15224318  0.67438135    -0.06200
C399        C  0.92565911  0.16178023  0.71212813    -0.21200
C400        C  0.91770865  0.13738318  0.73780095     0.24500
C401        C  0.92861204  0.10274213  0.72441984    -0.18800
C402        C  0.94740104  0.09310544  0.68631554    -0.08800
C403        C  0.89811787  0.14988298  0.77790418    -0.19100
C404        C  0.89344489  0.13174926  0.80948536    -0.23900
C405        C  0.87637208  0.14720667  0.85035425     0.26500
C406        C  0.88572666  0.13497129  0.88748375    -0.20600
C407        C  0.87174842  0.15028970  0.92686794    -0.10300
C408        C  0.84792231  0.17812410  0.92987195    -0.10800
C409        C  0.83760630  0.18953533  0.89247153    -0.03700
C410        C  0.85149075  0.17414724  0.85312836    -0.18800
H411        H  0.94981806  0.17203552  0.65562009     0.10200
H412        H  0.91747872  0.18856669  0.72139414     0.10300
H413        H  0.92252991  0.08288512  0.74273166     0.10000
H414        H  0.95534650  0.06630979  0.67669206     0.11100
H415        H  0.88894404  0.17652935  0.78259522     0.11200
H416        H  0.90469594  0.10605051  0.80710725     0.13100
H417        H  0.90456481  0.11405369  0.88616146     0.09600
H418        H  0.88011030  0.14065793  0.95501155     0.11700
H419        H  0.81894842  0.21056096  0.89353898     0.08300
H420        H  0.84250560  0.18341037  0.82504284     0.11000
C421        C  0.77944817  0.27213425  0.01656089    -0.03600
C422        C  0.76865731  0.29091497  0.05624793    -0.06200
C423        C  0.74622195  0.31958807  0.05857752    -0.21200
C424        C  0.73384987  0.32996117  0.02137500     0.24500
C425        C  0.74568402  0.31191242  0.98173477    -0.18800
C426        C  0.76796304  0.28327550  0.97938802    -0.08800
C427        C  0.70917042  0.35992495  0.02478343    -0.19100
C428        C  0.68632476  0.36334385  0.99360376    -0.23900
C429        C  0.66172791  0.39299901  0.99372045     0.26500
C430        C  0.64387802  0.39484454  0.95579698    -0.20600
C431        C  0.62077873  0.42204803  0.95318822    -0.10300
C432        C  0.61473813  0.44831063  0.98859989    -0.10800
C433        C  0.63214231  0.44632609  0.02692860    -0.03700
C434        C  0.65539989  0.41898540  0.02953215    -0.18800
H435        H  0.77733714  0.28335905  0.08556100     0.10200
H436        H  0.73803492  0.33335404  0.08953673     0.10300
H437        H  0.73817935  0.31996240  0.95231950     0.10000
H438        H  0.77612908  0.26985075  0.94826811     0.11100
H439        H  0.70963209  0.37886926  0.05395213     0.11200
H440        H  0.68551223  0.34314174  0.96560009     0.13100
H441        H  0.64805972  0.37522766  0.92771683     0.09600
H442        H  0.60786889  0.42255772  0.92313902     0.11700
H443        H  0.62798683  0.46602533  0.05490848     0.08300
H444        H  0.66805536  0.41846003  0.05962971     0.11000
loop_ 
_geom_bond_atom_site_label_1 
_geom_bond_atom_site_label_2 
_geom_bond_distance 
_geom_bond_site_symmetry_2 
_ccdc_geom_bond_type 
C1            N2   1.356       .  A
C1            N6   1.360       .  A
C1          C384   1.476       .  S
N2            C3   1.355   1_554  A
C3            N4   1.359       .  A
C3          C408   1.481       .  S
N4            C5   1.360   1_556  A
C5            N6   1.361       .  A
C5          C421   1.486       .  S
C7            N8   1.362       .  A
C7           N12   1.359       .  A
C7          C336   1.475       .  S
N8            C9   1.361       .  A
C9           N10   1.358       .  A
C9          C360   1.482       .  S
N10          C11   1.356       .  A
C11          N12   1.356       .  A
C11         C301   1.483   1_556  S
Zr13         O14   2.440       .  S
Zr13         O15   2.431       .  S
Zr13         O16   2.437       .  S
Zr13         O19   2.424       .  S
Zr13         O21   2.376       .  S
Zr13         O22   2.382       .  S
Zr13         O23   2.405       .  S
Zr13         O24   2.400       .  S
O14          H70   0.990       .  S
O14          H78   0.990       .  S
O15          C35   1.285       .  A
O16          C37   1.286       .  A
O17         Zr27   2.424       .  S
O17          C36   1.284       .  A
O18         Zr26   2.419   1_556  S
O18          C37   1.283       .  A
O19          C36   1.285       .  A
O20         Zr28   2.435       .  S
O20          C35   1.285       .  A
O21         Zr26   2.389   1_556  S
O21         Zr28   2.372       .  S
O22         Zr27   2.385       .  S
O22         Zr28   2.375       .  S
O22          H57   0.965       .  S
O23         Zr26   2.397   1_556  S
O23         Zr43   2.401       .  S
O23          H60   0.967       .  S
O24         Zr27   2.391       .  S
O24         Zr43   2.393       .  S
Zr25         O50   2.440       .  S
Zr25         O44   2.423       .  S
Zr25         O52   2.434       .  S
Zr25         O40   2.433       .  S
Zr25         O31   2.400   1_554  S
Zr25         O32   2.400       .  S
Zr25         O33   2.376       .  S
Zr25         O34   2.380   1_554  S
Zr26         O45   2.435       .  S
Zr26         O38   2.436       .  S
Zr26         O39   2.426       .  S
Zr26         O32   2.390       .  S
Zr26         O33   2.383       .  S
Zr27         O29   2.434       .  S
Zr27         O51   2.439       .  S
Zr27         O53   2.426       .  S
Zr27         O31   2.391       .  S
Zr27         O34   2.381       .  S
Zr28         O54   2.434       .  S
Zr28         O55   2.434       .  S
Zr28         O30   2.435       .  S
Zr28         O31   2.399       .  S
Zr28         O32   2.398   1_556  S
O29          H66   0.990       .  S
O30          H61   0.990       .  S
O30          H75   0.990       .  S
O32          H58   0.968       .  S
O33         Zr43   2.371   1_554  S
O34         Zr43   2.378       .  S
O34          H59   0.966       .  S
C35         C277   1.487       .  S
C36         C240   1.480       .  S
C37         C349   1.482       .  S
O38          H74   0.990       .  S
O39          C41   1.284       .  A
O40          C41   1.285       .  A
C41         C253   1.484       .  S
O42         Zr43   2.441       .  S
O42          H71   0.990       .  S
Zr43         O46   2.438   1_556  S
Zr43         O47   2.440       .  S
Zr43         O48   2.430   1_556  S
O44          C49   1.283       .  A
O45          H62   0.990       .  S
O45          H77   0.990       .  S
O46          H63   0.990       .  S
O47          H67   0.990       .  S
O47          H76   0.990       .  S
O48          C49   1.285       .  A
C49         C205   1.482       .  S
O50          H69   0.990       .  S
O50          H73   0.990       .  S
O51          H65   0.990       .  S
O51          H72   0.990       .  S
O52          C56   1.285   1_554  A
O53          C56   1.285       .  A
O54          H64   0.990       .  S
O55          H68   0.990       .  S
C56         C432   1.486       .  S
C79          N80   1.360       .  A
C79          N84   1.360       .  A
C79         C216   1.482       .  S
N80          C81   1.358       .  A
C81          N82   1.358       .  A
C81         C181   1.473       .  S
N82          C83   1.358       .  A
C83          N84   1.358       .  A
C83         C229   1.484       .  S
C85          N86   1.356       .  A
C85          N90   1.359       .  A
C85         C288   1.482       .  S
N86          C87   1.356       .  A
C87          N88   1.359       .  A
C87         C168   1.482       .  S
N88          C89   1.361       .  A
C89          N90   1.360       .  A
C89         C264   1.484       .  S
Zr91         O92   2.439       .  S
Zr91         O93   2.428       .  S
Zr91         O94   2.424       .  S
Zr91         O97   2.429       .  S
Zr91         O99   2.379       .  S
Zr91        O100   2.381       .  S
Zr91        O101   2.402       .  S
Zr91        O102   2.396   1_455  S
O92         H148   0.990       .  S
O92         H156   0.990       .  S
O93         C113   1.284       .  A
O94         C115   1.284       .  A
O95        Zr105   2.428       .  S
O95         C114   1.284       .  A
O96        Zr104   2.438       .  S
O96         C115   1.286       .  A
O97         C114   1.285   1_455  A
O98        Zr106   2.430       .  S
O98         C113   1.284       .  A
O99        Zr104   2.386       .  S
O99        Zr106   2.371       .  S
O100       Zr105   2.384   1_455  S
O100       Zr106   2.375       .  S
O100        H135   0.967       .  S
O101       Zr104   2.392       .  S
O101       Zr121   2.390       .  S
O101        H138   0.968       .  S
O102       Zr105   2.386       .  S
O102       Zr121   2.397   1_655  S
Zr103       O128   2.442   1_545  S
Zr103       O122   2.445   1_455  S
Zr103       O130   2.451   1_455  S
Zr103       O118   2.444       .  S
Zr103       O109   2.404   1_455  S
Zr103       O110   2.409       .  S
Zr103       O111   2.382       .  S
Zr103       O112   2.383   1_455  S
Zr104       O123   2.437       .  S
Zr104       O116   2.439       .  S
Zr104       O117   2.425       .  S
Zr104       O110   2.395       .  S
Zr104       O111   2.389       .  S
Zr105       O107   2.434       .  S
Zr105       O129   2.440       .  S
Zr105       O131   2.408       .  S
Zr105       O109   2.391       .  S
Zr105       O112   2.387       .  S
Zr106       O132   2.435   1_545  S
Zr106       O133   2.435   1_545  S
Zr106       O108   2.437   1_545  S
Zr106       O109   2.396   1_455  S
Zr106       O110   2.397       .  S
O107        H144   0.990       .  S
O108        H139   0.990       .  S
O108        H153   0.990   1_565  S
O110        H136   0.966       .  S
O111       Zr121   2.371       .  S
O112       Zr121   2.377   1_655  S
O112        H137   0.965       .  S
C113        C312   1.486       .  S
C114        C373   1.480       .  S
C115        C192   1.482       .  S
O116        H152   0.990       .  S
O117        C119   1.284       .  A
O118        C119   1.288       .  A
C119        C325   1.485       .  S
O120       Zr121   2.439       .  S
O120        H149   0.990       .  S
Zr121       O124   2.439       .  S
Zr121       O125   2.437   1_455  S
Zr121       O126   2.421   1_455  S
O122        C127   1.287       .  A
O123        H140   0.990       .  S
O123        H155   0.990       .  S
O124        H141   0.990       .  S
O125        H145   0.990       .  S
O125        H154   0.990       .  S
O126        C127   1.283       .  A
C127        C397   1.486       .  S
O128        H147   0.990   1_455  S
O128        H151   0.990       .  S
O129        H143   0.990       .  S
O129        H150   0.990       .  S
O130        C134   1.289       .  A
O131        C134   1.281       .  A
O132        H142   0.990       .  S
O133        H146   0.990       .  S
C134        C157   1.481   1_545  S
C157        C158   1.407   1_565  A
C157        C162   1.403       .  A
C158        C159   1.395   1_545  A
C158        H171   1.083       .  S
C159        C160   1.403       .  A
C159        H172   1.084       .  S
C160        C161   1.411       .  A
C160        C163   1.489       .  S
C161        C162   1.400       .  A
C161        H173   1.080       .  S
C162        H174   1.083       .  S
C163        C164   1.346       .  D
C163        H175   1.086       .  S
C164        C165   1.485       .  S
C164        H176   1.083       .  S
C165        C166   1.401       .  A
C165        C170   1.408       .  A
C166        C167   1.396       .  A
C166        H177   1.083       .  S
C167        C168   1.407       .  A
C167        H178   1.083       .  S
C168        C169   1.406       .  A
C169        C170   1.399       .  A
C169        H179   1.083       .  S
C170        H180   1.082       .  S
C181        C182   1.403       .  A
C181        C186   1.405       .  A
C182        C183   1.395       .  A
C182        H195   1.083       .  S
C183        C184   1.401       .  A
C183        H196   1.083       .  S
C184        C185   1.405       .  A
C184        C187   1.476       .  S
C185        C186   1.400       .  A
C185        H197   1.083       .  S
C186        H198   1.083       .  S
C187        C188   1.345       .  D
C187        H199   1.087       .  S
C188        C189   1.480       .  S
C188        H200   1.087       .  S
C189        C190   1.403       .  A
C189        C194   1.403       .  A
C190        C191   1.402       .  A
C190        H201   1.083       .  S
C191        C192   1.407       .  A
C191        H202   1.083       .  S
C192        C193   1.406       .  A
C193        C194   1.394       .  A
C193        H203   1.083       .  S
C194        H204   1.083       .  S
C205        C206   1.407       .  A
C205        C210   1.406       .  A
C206        C207   1.397       .  A
C206        H219   1.083       .  S
C207        C208   1.402       .  A
C207        H220   1.083       .  S
C208        C209   1.407       .  A
C208        C211   1.485       .  S
C209        C210   1.397       .  A
C209        H221   1.081       .  S
C210        H222   1.083       .  S
C211        C212   1.346       .  D
C211        H223   1.085       .  S
C212        C213   1.485       .  S
C212        H224   1.085       .  S
C213        C214   1.403       .  A
C213        C218   1.407       .  A
C214        C215   1.397       .  A
C214        H225   1.083       .  S
C215        C216   1.406       .  A
C215        H226   1.083       .  S
C216        C217   1.406       .  A
C217        C218   1.397       .  A
C217        H227   1.083       .  S
C218        H228   1.081       .  S
C229        C230   1.407       .  A
C229        C234   1.407       .  A
C230        C231   1.398       .  A
C230        H243   1.083       .  S
C231        C232   1.402       .  A
C231        H244   1.083       .  S
C232        C233   1.406       .  A
C232        C235   1.483       .  S
C233        C234   1.398       .  A
C233        H245   1.082       .  S
C234        H246   1.083       .  S
C235        C236   1.345       .  D
C235        H247   1.086       .  S
C236        C237   1.480       .  S
C236        H248   1.086       .  S
C237        C238   1.401       .  A
C237        C242   1.405       .  A
C238        C239   1.397       .  A
C238        H249   1.083       .  S
C239        C240   1.407       .  A
C239        H250   1.083       .  S
C240        C241   1.406       .  A
C241        C242   1.397       .  A
C241        H251   1.083       .  S
C242        H252   1.082       .  S
C253        C254   1.406       .  A
C253        C258   1.407       .  A
C254        C255   1.398       .  A
C254        H267   1.083       .  S
C255        C256   1.404       .  A
C255        H268   1.083       .  S
C256        C257   1.408       .  A
C256        C259   1.488       .  S
C257        C258   1.399       .  A
C257        H269   1.081       .  S
C258        H270   1.083       .  S
C259        C260   1.349       .  D
C259        H271   1.085       .  S
C260        C261   1.487       .  S
C260        H272   1.085       .  S
C261        C262   1.403       .  A
C261        C266   1.407       .  A
C262        C263   1.398       .  A
C262        H273   1.083       .  S
C263        C264   1.406       .  A
C263        H274   1.083       .  S
C264        C265   1.407       .  A
C265        C266   1.398       .  A
C265        H275   1.083       .  S
C266        H276   1.082       .  S
C277        C278   1.407       .  A
C277        C282   1.407       .  A
C278        C279   1.398       .  A
C278        H291   1.083       .  S
C279        C280   1.402       .  A
C279        H292   1.083       .  S
C280        C281   1.408       .  A
C280        C283   1.488       .  S
C281        C282   1.400       .  A
C281        H293   1.081       .  S
C282        H294   1.083       .  S
C283        C284   1.347       .  D
C283        H295   1.083       .  S
C284        C285   1.490       .  S
C284        H296   1.085       .  S
C285        C286   1.403       .  A
C285        C290   1.410       .  A
C286        C287   1.395       .  A
C286        H297   1.083       .  S
C287        C288   1.406       .  A
C287        H298   1.083       .  S
C288        C289   1.405       .  A
C289        C290   1.400       .  A
C289        H299   1.083       .  S
C290        H300   1.080       .  S
C301        C302   1.407   1_565  A
C301        C306   1.406       .  A
C302        C303   1.400       .  A
C302        H315   1.083       .  S
C303        C304   1.403       .  A
C303        H316   1.083       .  S
C304        C305   1.406   1_545  A
C304        C307   1.486       .  S
C305        C306   1.397       .  A
C305        H317   1.082       .  S
C306        H318   1.083       .  S
C307        C308   1.348       .  D
C307        H319   1.084       .  S
C308        C309   1.490       .  S
C308        H320   1.086   1_545  S
C309        C310   1.404   1_545  A
C309        C314   1.409       .  A
C310        C311   1.396   1_565  A
C310        H321   1.083       .  S
C311        C312   1.406       .  A
C311        H322   1.083   1_545  S
C312        C313   1.408       .  A
C313        C314   1.401       .  A
C313        H323   1.083       .  S
C314        H324   1.080       .  S
C325        C326   1.405       .  A
C325        C330   1.409       .  A
C326        C327   1.399   1_545  A
C326        H339   1.083   1_545  S
C327        C328   1.403   1_565  A
C327        H340   1.083       .  S
C328        C329   1.406       .  A
C328        C331   1.485   1_545  S
C329        C330   1.399       .  A
C329        H341   1.082       .  S
C330        H342   1.083       .  S
C331        C332   1.346   1_565  D
C331        H343   1.086       .  S
C332        C333   1.485       .  S
C332        H344   1.086       .  S
C333        C334   1.403       .  A
C333        C338   1.408   1_545  A
C334        C335   1.397       .  A
C334        H345   1.083       .  S
C335        C336   1.404   1_545  A
C335        H346   1.083       .  S
C336        C337   1.404       .  A
C337        C338   1.400       .  A
C337        H347   1.083       .  S
C338        H348   1.082       .  S
C349        C350   1.405       .  A
C349        C354   1.407       .  A
C350        C351   1.396       .  A
C350        H363   1.083       .  S
C351        C352   1.402       .  A
C351        H364   1.083       .  S
C352        C353   1.409       .  A
C352        C355   1.487       .  S
C353        C354   1.397       .  A
C353        H365   1.080   1_556  S
C354        H366   1.083   1_556  S
C355        C356   1.345       .  D
C355        H367   1.086       .  S
C356        C357   1.482       .  S
C356        H368   1.084       .  S
C357        C358   1.400       .  A
C357        C362   1.409       .  A
C358        C359   1.393       .  A
C358        H369   1.084   1_556  S
C359        C360   1.406       .  A
C359        H370   1.083   1_556  S
C360        C361   1.406       .  A
C361        C362   1.402       .  A
C361        H371   1.083       .  S
C362        H372   1.082       .  S
C373        C374   1.405       .  A
C373        C378   1.406       .  A
C374        C375   1.397       .  A
C374        H387   1.083       .  S
C375        C376   1.402       .  A
C375        H388   1.083       .  S
C376        C377   1.406       .  A
C376        C379   1.481       .  S
C377        C378   1.398       .  A
C377        H389   1.082       .  S
C378        H390   1.083       .  S
C379        C380   1.345       .  D
C379        H391   1.086       .  S
C380        C381   1.480       .  S
C380        H392   1.086       .  S
C381        C382   1.401       .  A
C381        C386   1.407       .  A
C382        C383   1.396       .  A
C382        H393   1.084       .  S
C383        C384   1.406       .  A
C383        H394   1.083       .  S
C384        C385   1.404       .  A
C385        C386   1.398       .  A
C385        H395   1.083       .  S
C386        H396   1.082       .  S
C397        C398   1.407       .  A
C397        C402   1.407       .  A
C398        C399   1.392       .  A
C398        H411   1.083       .  S
C399        C400   1.401       .  A
C399        H412   1.084       .  S
C400        C401   1.410       .  A
C400        C403   1.486       .  S
C401        C402   1.403       .  A
C401        H413   1.080       .  S
C402        H414   1.083       .  S
C403        C404   1.346       .  D
C403        H415   1.085       .  S
C404        C405   1.485       .  S
C404        H416   1.084       .  S
C405        C406   1.402       .  A
C405        C410   1.408       .  A
C406        C407   1.397       .  A
C406        H417   1.083       .  S
C407        C408   1.407       .  A
C407        H418   1.083       .  S
C408        C409   1.404       .  A
C409        C410   1.396       .  A
C409        H419   1.083       .  S
C410        H420   1.081       .  S
C421        C422   1.407       .  A
C421        C426   1.406   1_554  A
C422        C423   1.401       .  A
C422        H435   1.083       .  S
C423        C424   1.404       .  A
C423        H436   1.083       .  S
C424        C425   1.408   1_554  A
C424        C427   1.491       .  S
C425        C426   1.397       .  A
C425        H437   1.081       .  S
C426        H438   1.083       .  S
C427        C428   1.349   1_554  D
C427        H439   1.084       .  S
C428        C429   1.491       .  S
C428        H440   1.085       .  S
C429        C430   1.404       .  A
C429        C434   1.409   1_556  A
C430        C431   1.395       .  A
C430        H441   1.084       .  S
C431        C432   1.405       .  A
C431        H442   1.083       .  S
C432        C433   1.408   1_556  A
C433        C434   1.403       .  A
C433        H443   1.083       .  S
C434        H444   1.080       .  S
