geometry optimzed in LAMMPS
_audit_creation_date              2020-11-30 
_audit_creation_method            'lammps2cif' 
_symmetry_space_group_name_H-M    'P1' 
_symmetry_Int_Tables_number       1 
_symmetry_cell_setting            triclinic 
loop_ 
_symmetry_equiv_pos_as_xyz 
  x,y,z 
_cell_length_a                    42.4284041872821 
_cell_length_b                    39.40122253525314 
_cell_length_c                    27.851107168001736 
_cell_angle_alpha                 83.07802577926562 
_cell_angle_beta                  89.59667903501605 
_cell_angle_gamma                 121.86876875609313 
loop_ 
_atom_site_label 
_atom_site_type_symbol 
_atom_site_fract_x 
_atom_site_fract_y 
_atom_site_fract_z 
_atom_site_charge 
O1          O  0.31077731  0.33294424  0.39153874    -0.82320
O2          O  0.45568727  0.50784305  0.35843999    -0.67010
O3          O  0.36410276  0.40739628  0.36083598    -1.13610
C4          C  0.43174262  0.40395919  0.22721313     1.04570
O5          O  0.45027124  0.51774488  0.28264389    -0.80220
O6          O  0.38438137  0.46065412  0.25479582    -0.67800
Ni7        Ni  0.34279906  0.37880735  0.42372930     1.34870
C8          C  0.35590622  0.42504433  0.25723464     0.83300
O9          O  0.39210135  0.47495424  0.40964685    -0.80760
O10         O  0.37318954  0.42241914  0.46424729    -0.91030
C11         C  0.47088562  0.51883784  0.31589853     0.82880
O12         O  0.37879342  0.36604579  0.42123128    -0.69230
O13         O  0.42026489  0.42762252  0.21546913    -0.88520
C14         C  0.41350037  0.39094168  0.41955580     0.83710
C15         C  0.38850413  0.46068990  0.45332175     1.05270
H16         H  0.44529602  0.43599546  0.31677676     0.37080
O17         O  0.42542475  0.44008800  0.30985228    -1.11180
O18         O  0.35840756  0.39445671  0.26694063    -0.67830
Ni19       Ni  0.38601844  0.38746061  0.31633522     1.26350
O20         O  0.42838642  0.42941085  0.40608840    -0.68060
O21         O  0.41604797  0.37836967  0.26733737    -0.80350
C22         C  0.31473817  0.31653998  0.35672804     0.83090
O23         O  0.34423354  0.33243169  0.32754466    -0.67530
Ni24       Ni  0.43440826  0.47272651  0.24894103     1.27450
Ni25       Ni  0.40938802  0.45704564  0.36138538     1.26060
H26         H  0.34614049  0.41253003  0.34654378     0.37630
O27         O  0.34326159  0.53186594  0.02532001    -0.82320
O28         O  0.40675576  0.42559562  0.09226626    -0.67010
O29         O  0.38796036  0.00159223  0.02795429    -1.13610
C30         C  0.32976456  0.40294526  0.92342063     1.04570
O31         O  0.40847425  0.39547486  0.03356349    -0.80220
O32         O  0.42551997  0.96156681  0.95734230    -0.67800
Ni33       Ni  0.38620367  0.04071787  0.05940818     1.34870
C34         C  0.42005717  0.98914142  0.93813100     0.83300
O35         O  0.42924658  0.99865680  0.11199856    -0.80760
O36         O  0.43194538  0.05642132  0.09531075    -0.91030
C37         C  0.42576719  0.42249083  0.05963271     0.82880
O38         O  0.35206849  0.50126290  0.11054309    -0.69230
O39         O  0.36313076  0.41288877  0.92413962    -0.88520
C40         C  0.33808609  0.46337724  0.12132810     0.83710
C41         C  0.44543811  0.03618295  0.11542326     1.05270
H42         H  0.34339406  0.40422862  0.03973879     0.37080
O43         O  0.36494827  0.42732219  0.02112494    -1.11180
O44         O  0.38797471  0.98419214  0.93820932    -0.67830
Ni45       Ni  0.35028462  0.46107738  0.99014416     1.26350
O46         O  0.35307442  0.44489329  0.10702375    -0.68060
O47         O  0.31678907  0.41834046  0.95029090    -0.80350
C48         C  0.32757710  0.51776000  0.98704258     0.83090
O49         O  0.33440081  0.49601224  0.96369219    -0.67530
Ni50       Ni  0.38587336  0.40679689  0.97951010     1.27450
Ni51       Ni  0.39694240  0.96429498  0.06492776     1.26060
H52         H  0.40953970  0.01965396  0.00579159     0.37630
O53         O  0.05699081  0.04866172  0.68535871    -0.82320
O54         O  0.04270036  0.19292988  0.69932465    -0.67010
O55         O  0.02422640  0.09096346  0.67972305    -1.13610
C56         C  0.06858789  0.15425696  0.52318114     1.04570
O57         O  0.00103494  0.17832078  0.64379979    -0.80220
O58         O  0.97900652  0.11643522  0.58419636    -0.67800
Ni59       Ni  0.02661061  0.05449904  0.72809087     1.34870
C60         C  0.48176566  0.08768062  0.57243703     0.83300
O61         O  0.51881530  0.12575063  0.76164771    -0.80700
O62         O  0.49575673  0.05942374  0.77151220    -0.91030
C63         C  0.01840516  0.19800398  0.67838882     0.82880
O64         O  0.06926696  0.09359611  0.75372241    -0.69230
O65         O  0.04564606  0.16541090  0.53031640    -0.88520
C66         C  0.09233627  0.13117731  0.74283726     0.83710
C67         C  0.50374814  0.09152049  0.78762223     1.05270
H68         H  0.07795524  0.18182108  0.62438236     0.37080
O69         O  0.05283851  0.15843607  0.62768579    -1.11180
O70         O  0.01004208  0.08605412  0.58268124    -0.67830
Ni71       Ni  0.05395107  0.11325001  0.61765921     1.26350
O72         O  0.08538513  0.15515122  0.71515697    -0.68060
O73         O  0.08056245  0.13994313  0.55694888    -0.80350
C74         C  0.04218728  0.03997132  0.64626267     0.83090
O75         O  0.05750533  0.06750636  0.61040278    -0.67530
Ni76       Ni  0.02301868  0.17045873  0.58769394     1.27450
Ni77       Ni  0.03557975  0.14171222  0.69422493     1.26060
H78         H  0.49837986  0.07735175  0.67287571     0.37630
O79         O  0.07841861  0.96160123  0.32688440    -0.82320
O80         O  0.18084747  0.13163124  0.35805067    -0.67010
O81         O  0.10152864  0.03572090  0.32195639    -1.13610
C82         C  0.17792465  0.09299667  0.18591417     1.04570
O83         O  0.16217948  0.16098229  0.30076375    -0.80220
O84         O  0.11232723  0.12249035  0.22686922    -0.67800
Ni85       Ni  0.07047856  0.99355049  0.36682683     1.34870
C86         C  0.08700751  0.08797870  0.21583576     0.83300
O87         O  0.10637680  0.09337395  0.35191924    -0.80760
O88         O  0.06483657  0.03352491  0.39917637    -0.91030
C89         C  0.18439629  0.16347619  0.33357681     0.82880
O90         O  0.10901243  0.99745115  0.40477091    -0.69230
O91         O  0.17393104  0.12328253  0.18415093    -0.88520
C92         C  0.11860897  0.02187750  0.43473542     0.83710
C93         C  0.07981838  0.07241536  0.38531961     1.05270
H94         H  0.18042221  0.09742460  0.27681099     0.37080
O95         O  0.15614837  0.09408109  0.27818243    -1.11180
O96         O  0.09002206  0.05711146  0.22579858    -0.67830
Ni97       Ni  0.12329239  0.04284737  0.25969837     1.26350
O98         O  0.13182022  0.05902997  0.41753845    -0.68060
O99         O  0.15075747  0.05679199  0.19977774    -0.80350
C100        C  0.06600679  0.96421046  0.28594771     0.83090
O101        O  0.08958655  0.98689780  0.24983717    -0.67530
Ni102      Ni  0.16461633  0.14139131  0.24131831     1.27450
Ni103      Ni  0.14217550  0.07946582  0.34627924     1.26060
H104        H  0.08366305  0.04226752  0.31085433     0.37630
O105        O  0.07741986  0.55483404  0.05071219    -0.82320
O106        O  0.18062845  0.02332004  0.98741583    -0.67010
O107        O  0.13138436  0.04158657  0.01396381    -1.13610
C108        C  0.06044781  0.48659712  0.88201657     1.04570
O109        O  0.17490251  0.99890660  0.91768753    -0.80220
O110        O  0.14329606  0.03712356  0.86200846    -0.67800
Ni111      Ni  0.12252065  0.05932701  0.07000484     1.34870
C112        C  0.14595469  0.06848105  0.87465598     0.83300
O113        O  0.15972794  0.00529973  0.07948659    -0.80760
O114        O  0.16760777  0.06493780  0.08834354    -0.91030
C115        C  0.19387099  0.01570847  0.95218709     0.82880
O116        O  0.09311820  0.50772994  0.11208450    -0.69230
O117        O  0.07854875  0.46915137  0.87988830    -0.88520
C118        C  0.07317350  0.47203296  0.10139935     0.83710
C119        C  0.17955626  0.04109082  0.08987666     1.05270
H120        H  0.08419406  0.46126087  0.97002813     0.37080
O121        O  0.10787333  0.48646064  0.96247780    -1.11180
O122        O  0.14130329  0.06983951  0.91901342    -0.67830
Ni123      Ni  0.09977738  0.52886356  0.96256394     1.26350
O124        O  0.08300006  0.46263939  0.06326075    -0.68060
O125        O  0.06750054  0.51333525  0.90948558    -0.80350
C126        C  0.06797946  0.55601701  0.00773429     0.83090
O127        O  0.09143752  0.56950042  0.97186926    -0.67530
Ni128      Ni  0.12622881  0.48442425  0.90025492     1.27450
Ni129      Ni  0.13228820  0.99359187  0.02262235     1.26060
H130        H  0.15569832  0.06372365  0.00044261     0.37630
O131        O  0.43767850  0.28629120  0.75147239    -0.82320
O132        O  0.37727353  0.40142020  0.69035732    -0.67010
O133        O  0.40923094  0.32658131  0.70636873    -1.13610
C134        C  0.01424947  0.43151369  0.59848356     1.04570
O135        O  0.38831850  0.40270131  0.61517081    -0.80220
O136        O  0.41723699  0.36458998  0.57707282    -0.67800
Ni137      Ni  0.40659789  0.30483029  0.77276066     1.34870
C138        C  0.43549203  0.34760263  0.57691482     0.83300
O139        O  0.34739747  0.33022392  0.74115409    -0.80760
O140        O  0.37327946  0.31849071  0.80326632    -0.91030
C141        C  0.38991492  0.42204618  0.64921592     0.82880
O142        O  0.44765521  0.35688567  0.77986598    -0.69230
O143        O  0.98803014  0.43331243  0.57811202    -0.88520
C144        C  0.94559747  0.38829718  0.77539386     0.83710
C145        C  0.34919612  0.32578983  0.78655482     1.05270
H146        H  0.95622144  0.42163299  0.67550327     0.37080
O147        O  0.43995972  0.39804180  0.66089609    -1.11180
O148        O  0.45038459  0.34264023  0.61413885    -0.67830
Ni149      Ni  0.46001403  0.36575344  0.67393338     1.26350
O150        O  0.42027293  0.39068722  0.75351800    -0.68060
O151        O  0.00859399  0.40813931  0.63892020    -0.80350
C152        C  0.46559050  0.29943278  0.72078248     0.83090
O153        O  0.47955312  0.33235720  0.69159445    -0.67530
Ni154      Ni  0.43712896  0.41622356  0.59617791     1.27450
Ni155      Ni  0.39280361  0.36359838  0.70024929     1.26060
H156        H  0.39494913  0.30513077  0.68734456     0.37630
C157        C  0.99326658  0.45307289  0.87060873    -0.14780
C158        C  0.03018662  0.47404798  0.85040253     0.07370
C159        C  0.03783364  0.47225821  0.80198302    -0.14780
C160        C  0.00935991  0.44606413  0.77588949    -0.14780
C161        C  0.97295709  0.42250887  0.79756653     0.07370
C162        C  0.96452103  0.42757784  0.84389028    -0.14780
H163        H  0.98709041  0.45280658  0.90846179     0.11360
H164        H  0.06632827  0.48796532  0.78618164     0.11360
H165        H  0.01602049  0.44223468  0.74007359     0.11360
H166        H  0.43635455  0.40905048  0.86095474     0.11360
C167        C  0.09426185  0.46419135  0.50478839    -0.14780
C168        C  0.10420139  0.00421852  0.48703302     0.07370
C169        C  0.09067645  0.02193707  0.51479593    -0.14780
C170        C  0.06471285  0.49896920  0.55511423    -0.14780
C171        C  0.05196882  0.45805549  0.57050579     0.07370
C172        C  0.06892475  0.44164408  0.54631475    -0.14780
H173        H  0.10366207  0.44910656  0.48413904     0.11360
H174        H  0.09673735  0.05205195  0.50231699     0.11360
H175        H  0.05182674  0.51224387  0.57144081     0.11360
H176        H  0.05945819  0.41005115  0.55592280     0.11360
C177        C  0.23389050  0.12060606  0.12872803    -0.14780
C178        C  0.21412090  0.09786054  0.17327265     0.07370
C179        C  0.21593832  0.06350270  0.18939742    -0.14780
C180        C  0.21718938  0.04184030  0.15390884    -0.14780
C181        C  0.21759712  0.05711761  0.10579894     0.07370
C182        C  0.23942859  0.09981795  0.09524092    -0.14780
H183        H  0.23679025  0.14928162  0.11606489     0.11360
H184        H  0.20554876  0.04773617  0.22606418     0.11360
H185        H  0.20738758  0.01020609  0.16405853     0.11360
H186        H  0.24737993  0.11411472  0.05776934     0.11360
C187        C  0.14579584  0.12387540  0.75246290    -0.14780
C188        C  0.12739032  0.14288814  0.76633879     0.07370
C189        C  0.12690227  0.14747412  0.81565447    -0.14780
C190        C  0.13755744  0.12714639  0.85060150    -0.14780
C191        C  0.14908622  0.10156433  0.83731386     0.07370
C192        C  0.15535246  0.10241649  0.78739663    -0.14780
H193        H  0.14635937  0.11909116  0.71504043     0.11360
H194        H  0.11252741  0.16111293  0.82831598     0.11360
H195        H  0.13248810  0.12776810  0.88853921     0.11360
H196        H  0.16432655  0.08348697  0.77534386     0.11360
C197        C  0.46897236  0.20696762  0.71002482    -0.14780
C198        C  0.00678604  0.22364708  0.69656022     0.07370
C199        C  0.03191820  0.26533583  0.69498979    -0.14780
C200        C  0.01891180  0.29030147  0.70427936    -0.14780
C201        C  0.48082125  0.27360672  0.71675439     0.07370
C202        C  0.45620286  0.23159197  0.72080010    -0.14780
H203        H  0.44912764  0.17490417  0.71096260     0.11360
H204        H  0.06113724  0.27877054  0.68403421     0.11360
H205        H  0.03838485  0.32264218  0.70073500     0.11360
H206        H  0.42666619  0.21800544  0.72968660     0.11360
C207        C  0.97848163  0.99557774  0.69167908    -0.14780
C208        C  0.00137595  0.01160270  0.64780393     0.07370
C209        C  0.48439710  0.00370826  0.60432185    -0.14780
C210        C  0.44596044  0.48038132  0.60444960    -0.14780
C211        C  0.42343220  0.46269512  0.64801233     0.07370
C212        C  0.93988499  0.47411362  0.69159217    -0.14780
H213        H  0.98970319  0.99731871  0.72646188     0.11360
H214        H  0.50092255  0.01488642  0.56997887     0.11360
H215        H  0.43416697  0.47124124  0.57069558     0.11360
H216        H  0.92342648  0.46086423  0.72619768     0.11360
C217        C  0.04567040  0.12814298  0.44711099    -0.14780
C218        C  0.07625721  0.14975063  0.47432121     0.07370
C219        C  0.10900170  0.15058260  0.46523948    -0.14780
C220        C  0.10876460  0.12411913  0.43691453    -0.14780
C221        C  0.07630403  0.09757284  0.41586546     0.07370
C222        C  0.04547541  0.10137423  0.41814148    -0.14780
H223        H  0.02022515  0.12772497  0.45330889     0.11360
H224        H  0.13303809  0.16756478  0.48524128     0.11360
H225        H  0.13377104  0.12335628  0.43295408     0.11360
H226        H  0.02117415  0.08284472  0.39939689     0.11360
C227        C  0.30747267  0.33570633  0.90247201    -0.14780
C228        C  0.30987147  0.37292222  0.88949173     0.07370
C229        C  0.31583270  0.38776825  0.83948181    -0.14780
C230        C  0.32442779  0.36950944  0.80511158    -0.14780
C231        C  0.32812612  0.33624877  0.81970575     0.07370
C232        C  0.31771246  0.31849141  0.86862539    -0.14780
H233        H  0.30395239  0.32358885  0.94053127     0.11360
H234        H  0.31910408  0.41675485  0.82768446     0.11360
H235        H  0.33221667  0.38427838  0.76788186     0.11360
H236        H  0.32007913  0.29293795  0.88151079     0.11360
C237        C  0.99533844  0.08384210  0.17400150    -0.14780
C238        C  0.48308269  0.05574571  0.14012336     0.07370
C239        C  0.50793441  0.04371210  0.12984716    -0.14780
C240        C  0.04161969  0.05636495  0.15194838    -0.14780
C241        C  0.05322069  0.08205601  0.18766288     0.07370
C242        C  0.02960255  0.09660563  0.19742433    -0.14780
H243        H  0.97789372  0.09473990  0.18396545     0.11360
H244        H  0.50052089  0.02312782  0.10465729     0.11360
H245        H  0.05802451  0.04409820  0.14265151     0.11360
H246        H  0.03659601  0.11633136  0.22469259     0.11360
C247        C  0.27742055  0.50725622  0.93212236    -0.14780
C248        C  0.29803697  0.52494249  0.97105631     0.07370
C249        C  0.28725430  0.54559292  0.99818909    -0.14780
C250        C  0.25486915  0.54549905  0.98932093    -0.14780
C251        C  0.23243827  0.02467551  0.95322496     0.07370
C252        C  0.24496903  0.00714876  0.92325552    -0.14780
H253        H  0.28507948  0.49140049  0.91018811     0.11360
H254        H  0.30264468  0.55997106  0.02811446     0.11360
H255        H  0.24632243  0.55983147  0.01250471     0.11360
H256        H  0.22845017  0.99100139  0.89500564     0.11360
C257        C  0.46771220  0.99691916  0.02912688    -0.14780
C258        C  0.46116338  0.45776022  0.03691385     0.07370
C259        C  0.48833076  0.45174043  0.01886640    -0.14780
C260        C  0.02338003  0.48509742  0.00267544    -0.14780
C261        C  0.03070546  0.52437442  0.00220018     0.07370
C262        C  0.00223582  0.03013865  0.01228109    -0.14780
H263        H  0.44671142  0.00294207  0.03376691     0.11360
H264        H  0.48371299  0.42173636  0.02201894     0.11360
H265        H  0.04554094  0.48004096  0.99676480     0.11360
H266        H  0.00731229  0.06026502  0.01086335     0.11360
C267        C  0.44211510  0.05697284  0.89343022    -0.14780
C268        C  0.45020892  0.02786856  0.91298342     0.07370
C269        C  0.48537717  0.03451549  0.90267543    -0.14780
C270        C  0.50958396  0.06589378  0.86710675    -0.14780
C271        C  0.49675718  0.08758068  0.83913986     0.07370
C272        C  0.46534524  0.08672105  0.85569638    -0.14780
H273        H  0.41574711  0.05378845  0.90268452     0.11360
H274        H  0.49263848  0.01335102  0.91813363     0.11360
H275        H  0.03465669  0.06738658  0.85481194     0.11360
H276        H  0.45564734  0.10397774  0.83476214     0.11360
C277        C  0.01042024  0.45847376  0.12396897    -0.14780
C278        C  0.03473385  0.44511725  0.13076572     0.07370
C279        C  0.02381853  0.41390238  0.17103750    -0.14780
C280        C  0.48959323  0.39749645  0.20176670    -0.14780
C281        C  0.46516011  0.41186626  0.19336461     0.07370
C282        C  0.47693818  0.44231955  0.15279491    -0.14780
H283        H  0.01898584  0.48394880  0.09677763     0.11360
H284        H  0.04237247  0.40352814  0.18028864     0.11360
H285        H  0.48343462  0.37528228  0.23317685     0.11360
H286        H  0.46136027  0.45648882  0.14465127     0.11360
C287        C  0.44856498  0.51280278  0.48109415    -0.14780
C288        C  0.40954248  0.49082679  0.48765497     0.07370
C289        C  0.39315667  0.00327656  0.52048371    -0.14780
C290        C  0.41563978  0.03578619  0.54716736    -0.14780
C291        C  0.45499364  0.05659338  0.54157512     0.07370
C292        C  0.47049456  0.04450990  0.50742809    -0.14780
H293        H  0.46238008  0.50499692  0.45574179     0.11360
H294        H  0.36314664  0.98812981  0.52523902     0.11360
H295        H  0.40229782  0.04374429  0.57296160     0.11360
H296        H  0.50029042  0.05845324  0.50267451     0.11360
C297        C  0.26475313  0.27223705  0.30684303    -0.14780
C298        C  0.28245573  0.27703857  0.35001982     0.07370
C299        C  0.26692005  0.24502796  0.38862123    -0.14780
C300        C  0.23450442  0.20827479  0.38372963    -0.14780
C301        C  0.21647330  0.20339044  0.34064110     0.07370
C302        C  0.23175625  0.23583976  0.30236499    -0.14780
H303        H  0.27604476  0.29691079  0.27703972     0.11360
H304        H  0.28004941  0.24845881  0.42243031     0.11360
H305        H  0.22350922  0.18367921  0.41364037     0.11360
H306        H  0.21875269  0.23271866  0.26849565     0.11360
C307        C  0.50470185  0.00274013  0.25884473    -0.14780
C308        C  0.49745338  0.50666091  0.30632263     0.07370
C309        C  0.50384372  0.48496698  0.34476338    -0.14780
C310        C  0.01479644  0.45876572  0.33500427    -0.14780
C311        C  0.03121289  0.96399214  0.28884084     0.07370
C312        C  0.02311559  0.98325248  0.24998455    -0.14780
H313        H  0.49524244  0.01382262  0.22880575     0.11360
H314        H  0.49622737  0.48444093  0.38211127     0.11360
H315        H  0.01705756  0.44038421  0.36532388     0.11360
H316        H  0.03346347  0.98586898  0.21334759     0.11360
C317        C  0.46789300  0.39576358  0.46039707    -0.14780
C318        C  0.43381000  0.37257567  0.44122596     0.07370
C319        C  0.41259958  0.33038757  0.45785308    -0.14780
C320        C  0.41753793  0.31585347  0.50350894    -0.14780
C321        C  0.44615807  0.34262861  0.52917270     0.07370
C322        C  0.47533839  0.37879140  0.50240980    -0.14780
H323        H  0.48613143  0.42769842  0.44739662     0.11360
H324        H  0.38748356  0.31045142  0.44133719     0.11360
H325        H  0.39550709  0.28662900  0.52174244     0.11360
H326        H  0.50013487  0.39792843  0.51913557     0.11360
C327        C  0.30020760  0.38843240  0.21476649    -0.14780
C328        C  0.32024921  0.41881511  0.24376515     0.07370
C329        C  0.31636791  0.45223900  0.23854379    -0.14780
C330        C  0.30635359  0.46237763  0.19413470    -0.14780
C331        C  0.30519613  0.44091904  0.15672507     0.07370
C332        C  0.29163123  0.39973895  0.16986933    -0.14780
H333        H  0.29987715  0.36056376  0.22028540     0.11360
H334        H  0.32875304  0.47460053  0.26292370     0.11360
H335        H  0.31141802  0.49251730  0.18577442     0.11360
H336        H  0.28551718  0.38047271  0.14218514     0.11360
O337        O  0.31075233  0.83294905  0.39157726    -0.82320
O338        O  0.45565075  0.00785520  0.35848058    -0.67010
O339        O  0.36407678  0.90740134  0.36086581    -1.13610
C340        C  0.43174637  0.90394349  0.22728576     1.04570
O341        O  0.45024494  0.01774257  0.28267893    -0.80220
O342        O  0.38437607  0.96064550  0.25480036    -0.67800
Ni343      Ni  0.34276403  0.87881882  0.42376357     1.34870
C344        C  0.35590403  0.92503595  0.25723116     0.83300
O345        O  0.39205851  0.97496338  0.40966685    -0.80760
O346        O  0.37314241  0.92243532  0.46427961    -0.91030
C347        C  0.47085575  0.01884657  0.31594319     0.82880
O348        O  0.37876369  0.86606213  0.42130029    -0.69230
O349        O  0.42028290  0.92761821  0.21552126    -0.88520
C350        C  0.41347152  0.89096022  0.41961510     0.83710
C351        C  0.38845837  0.96070507  0.45334598     1.05270
H352        H  0.44531314  0.93595738  0.31685409     0.37080
O353        O  0.42538587  0.94009355  0.30989840    -1.11180
O354        O  0.35840181  0.89444888  0.26697140    -0.67830
Ni355      Ni  0.38600619  0.88746224  0.31638937     1.26350
O356        O  0.42835576  0.92942845  0.40614081    -0.68060
O357        O  0.41604295  0.87836313  0.26741592    -0.80350
C358        C  0.31472233  0.81654186  0.35677683     0.83090
O359        O  0.34422101  0.83243271  0.32760154    -0.67530
Ni360      Ni  0.43440590  0.97272168  0.24898725     1.27450
Ni361      Ni  0.40936110  0.95705257  0.36142074     1.26060
H362        H  0.34611830  0.91252989  0.34655809     0.37630
O363        O  0.34324042  0.03183011  0.02530356    -0.82320
O364        O  0.40669175  0.92553466  0.09225817    -0.67010
O365        O  0.38796534  0.50160821  0.02797562    -1.13610
C366        C  0.32980503  0.90298681  0.92332567     1.04570
O367        O  0.40841838  0.89541780  0.03355564    -0.80220
O368        O  0.42550605  0.46159731  0.95732829    -0.67800
Ni369      Ni  0.38622303  0.54074801  0.05942307     1.34870
C370        C  0.42000386  0.48914073  0.93810775     0.83300
O371        O  0.42930628  0.49871555  0.11197971    -0.80760
O372        O  0.43196425  0.55645875  0.09532950    -0.91030
C373        C  0.42570914  0.92242502  0.05963810     0.82880
O374        O  0.35204567  0.00122832  0.11052849    -0.69230
O375        O  0.36316640  0.91291781  0.92407466    -0.88520
C376        C  0.33804432  0.96333688  0.12129002     0.83710
C377        C  0.44547524  0.53623454  0.11542513     1.05270
H378        H  0.34336232  0.90421788  0.03966227     0.37080
O379        O  0.36493131  0.92730973  0.02107040    -1.11180
O380        O  0.38791043  0.48416126  0.93823624    -0.67830
Ni381      Ni  0.35030548  0.96109614  0.99007198     1.26350
O382        O  0.35302085  0.94484744  0.10696997    -0.68060
O383        O  0.31682658  0.91838811  0.95017858    -0.80350
C384        C  0.32758696  0.01775993  0.98699503     0.83090
O385        O  0.33445366  0.99606007  0.96360990    -0.67530
Ni386      Ni  0.38586043  0.90677654  0.97947428     1.27450
Ni387      Ni  0.39697911  0.46433421  0.06494397     1.26060
H388        H  0.40952946  0.51966422  0.00578699     0.37630
O389        O  0.05701136  0.54871670  0.68542300    -0.82320
O390        O  0.04272770  0.69297542  0.69923911    -0.67010
O391        O  0.02422847  0.59099438  0.67968975    -1.13610
C392        C  0.06863574  0.65425540  0.52315983     1.04570
O393        O  0.00106603  0.67835226  0.64370792    -0.80220
O394        O  0.97904873  0.61645139  0.58412223    -0.67800
Ni395      Ni  0.02658282  0.55453728  0.72809478     1.34870
C396        C  0.48181027  0.58769303  0.57238030     0.83300
O397        O  0.51879874  0.62579631  0.76158138    -0.80700
O398        O  0.49567899  0.55945666  0.77143687    -0.91030
C399        C  0.01843162  0.69804209  0.67829540     0.82880
O400        O  0.06920450  0.59362990  0.75379702    -0.69230
O401        O  0.04569840  0.66541900  0.53027190    -0.88520
C402        C  0.09230935  0.63119659  0.74284336     0.83710
C403        C  0.50367164  0.59155521  0.78754318     1.05270
H404        H  0.07798515  0.68184247  0.62433627     0.37080
O405        O  0.05286762  0.65845906  0.62763540    -1.11180
O406        O  0.01008285  0.58606566  0.58264582    -0.67830
Ni407      Ni  0.05397717  0.61326421  0.61764732     1.26350
O408        O  0.08538620  0.65516897  0.71511076    -0.68060
O409        O  0.08060389  0.63994452  0.55694222    -0.80350
C410        C  0.04221836  0.53999318  0.64632515     0.83090
O411        O  0.05753125  0.56751001  0.61044361    -0.67530
Ni412      Ni  0.02305849  0.67047807  0.58762228     1.27450
Ni413      Ni  0.03559042  0.64174922  0.69416543     1.26060
H414        H  0.49838600  0.57738710  0.67282339     0.37630
O415        O  0.07845364  0.46161408  0.32679253    -0.82320
O416        O  0.18083909  0.63161613  0.35810188    -0.67010
O417        O  0.10155753  0.53572010  0.32192655    -1.13610
C418        C  0.17796896  0.59309967  0.18589496     1.04570
O419        O  0.16216572  0.66097781  0.30084248    -0.80220
O420        O  0.11233918  0.62252696  0.22691973    -0.67800
Ni421      Ni  0.07048288  0.49353023  0.36675829     1.34870
C422        C  0.08702996  0.58802304  0.21585744     0.83300
O423        O  0.10636889  0.59334458  0.35191284    -0.80760
O424        O  0.06482010  0.53347960  0.39913296    -0.91030
C425        C  0.18438538  0.66346649  0.33364765     0.82880
O426        O  0.10898322  0.49740088  0.40475656    -0.69230
O427        O  0.17396432  0.62337590  0.18417124    -0.88520
C428        C  0.11857634  0.52182489  0.43472614     0.83710
C429        C  0.07980496  0.57237301  0.38530173     1.05270
H430        H  0.18045234  0.59746763  0.27681602     0.37080
O431        O  0.15617443  0.59411398  0.27819069    -1.11180
O432        O  0.09005586  0.55716053  0.22578443    -0.67830
Ni433      Ni  0.12333396  0.54289406  0.25966137     1.26350
O434        O  0.13180024  0.55898229  0.41753637    -0.68060
O435        O  0.15080980  0.55688566  0.19973736    -0.80350
C436        C  0.06605520  0.46424051  0.28584945     0.83090
O437        O  0.08964401  0.48695254  0.24975513    -0.67530
Ni438      Ni  0.16462808  0.64143554  0.24136971     1.27450
Ni439      Ni  0.14218207  0.57945628  0.34628459     1.26060
H440        H  0.08368976  0.54226270  0.31082389     0.37630
O441        O  0.07739743  0.05474311  0.05080382    -0.82320
O442        O  0.18066077  0.52340076  0.98739095    -0.67010
O443        O  0.13140702  0.54165793  0.01391701    -1.13610
C444        C  0.06040658  0.98656329  0.88206437     1.04570
O445        O  0.17493689  0.49895670  0.91768632    -0.80220
O446        O  0.14332626  0.53715113  0.86197145    -0.67800
Ni447      Ni  0.12253426  0.55940946  0.06994160     1.34870
C448        C  0.14598631  0.56851315  0.87460526     0.83300
O449        O  0.15975658  0.50539063  0.07946166    -0.80760
O450        O  0.16761565  0.56502098  0.08831123    -0.91030
C451        C  0.19390396  0.51577335  0.95217918     0.82880
O452        O  0.09311743  0.00764730  0.11215228    -0.69230
O453        O  0.07851196  0.96912497  0.87990491    -0.88520
C454        C  0.07315780  0.97195661  0.10145569     0.83710
C455        C  0.17957469  0.54118351  0.08984873     1.05270
H456        H  0.08416103  0.96120332  0.97004753     0.37080
O457        O  0.10784069  0.98640343  0.96250333    -1.11180
O458        O  0.14134259  0.56988339  0.91896020    -0.67830
Ni459      Ni  0.09974685  0.02880541  0.96262009     1.26350
O460        O  0.08296844  0.96256969  0.06329595    -0.68060
O461        O  0.06746185  0.01329069  0.90955067    -0.80350
C462        C  0.06795297  0.05593821  0.00782990     0.83090
O463        O  0.09140831  0.06943617  0.97195982    -0.67530
Ni464      Ni  0.12619315  0.98438576  0.90026602     1.27450
Ni465      Ni  0.13232045  0.49366775  0.02259554     1.26060
H466        H  0.15572116  0.56379639  0.00039864     0.37630
O467        O  0.43770830  0.78630984  0.75143629    -0.82320
O468        O  0.37726657  0.90139246  0.69028513    -0.67010
O469        O  0.40925939  0.82658753  0.70632773    -1.13610
C470        C  0.01426573  0.93152723  0.59844959     1.04570
O471        O  0.38831436  0.90266068  0.61510305    -0.80220
O472        O  0.41725084  0.86455445  0.57704977    -0.67800
Ni473      Ni  0.40662063  0.80483894  0.77272133     1.34870
C474        C  0.43552470  0.84758896  0.57689102     0.83300
O475        O  0.34741086  0.83020593  0.74109552    -0.80760
O476        O  0.37329479  0.81849171  0.80321715    -0.91030
C477        C  0.38989957  0.92200977  0.64913776     0.82880
O478        O  0.44766752  0.85689781  0.77983677    -0.69230
O479        O  0.98803913  0.93330106  0.57806269    -0.88520
C480        C  0.94559904  0.88830284  0.77536337     0.83710
C481        C  0.34921051  0.82578456  0.78649633     1.05270
H482        H  0.95622353  0.92164096  0.67544537     0.37080
O483        O  0.43997073  0.89804237  0.66084494    -1.11180
O484        O  0.45043269  0.84265247  0.61411201    -0.67830
Ni485      Ni  0.46004190  0.86577177  0.67390244     1.26350
O486        O  0.42028179  0.89069132  0.75346155    -0.68060
O487        O  0.00861766  0.90816802  0.63889660    -0.80350
C488        C  0.46562711  0.79946186  0.72075538     0.83090
O489        O  0.47959735  0.83239443  0.69158213    -0.67530
Ni490      Ni  0.43713158  0.91619763  0.59611941     1.27450
Ni491      Ni  0.39281635  0.86358915  0.70019441     1.26060
H492        H  0.39498628  0.80513550  0.68730209     0.37630
C493        C  0.99321671  0.95295333  0.87070073    -0.14780
C494        C  0.03013480  0.97401812  0.85046842     0.07370
C495        C  0.03778649  0.97232112  0.80201204    -0.14780
C496        C  0.00932516  0.94614089  0.77588997    -0.14780
C497        C  0.97292928  0.92250229  0.79758178     0.07370
C498        C  0.96448379  0.92746843  0.84396044    -0.14780
H499        H  0.98703964  0.95261728  0.90857779     0.11360
H500        H  0.06628099  0.98809342  0.78619196     0.11360
H501        H  0.01599466  0.94238625  0.74003513     0.11360
H502        H  0.43632470  0.90887375  0.86103832     0.11360
C503        C  0.09431543  0.96425137  0.50479684    -0.14780
C504        C  0.10416412  0.50416420  0.48702565     0.07370
C505        C  0.09066453  0.52189966  0.51480258    -0.14780
C506        C  0.06471403  0.99899257  0.55509154    -0.14780
C507        C  0.05198674  0.95808407  0.57048389     0.07370
C508        C  0.06896682  0.94169044  0.54630894    -0.14780
H509        H  0.10373533  0.94917979  0.48415505     0.11360
H510        H  0.09674053  0.55202099  0.50232870     0.11360
H511        H  0.05180525  0.01225009  0.57139930     0.11360
H512        H  0.05951285  0.91010105  0.55591728     0.11360
C513        C  0.23391574  0.62072145  0.12867478    -0.14780
C514        C  0.21417191  0.59798590  0.17323501     0.07370
C515        C  0.21600732  0.56363924  0.18935600    -0.14780
C516        C  0.21723356  0.54196350  0.15386756    -0.14780
C517        C  0.21762031  0.55722844  0.10575940     0.07370
C518        C  0.23944116  0.59992806  0.09518363    -0.14780
H519        H  0.23680251  0.64939033  0.11601041     0.11360
H520        H  0.20563926  0.54788339  0.22603070     0.11360
H521        H  0.20743364  0.51033054  0.16402538     0.11360
H522        H  0.24737014  0.61421470  0.05770697     0.11360
C523        C  0.14574112  0.62384022  0.75241106    -0.14780
C524        C  0.12737476  0.64288870  0.76630427     0.07370
C525        C  0.12693716  0.64750997  0.81561267    -0.14780
C526        C  0.13761119  0.62719329  0.85054663    -0.14780
C527        C  0.14910466  0.60158320  0.83725350     0.07370
C528        C  0.15531674  0.60239326  0.78733387    -0.14780
H529        H  0.14626095  0.61902457  0.71499492     0.11360
H530        H  0.11259053  0.66117453  0.82828721     0.11360
H531        H  0.13258388  0.62784749  0.88848611     0.11360
H532        H  0.16426007  0.58343914  0.77527673     0.11360
C533        C  0.46897456  0.70700841  0.70982237    -0.14780
C534        C  0.00680163  0.72367627  0.69646386     0.07370
C535        C  0.03194958  0.76534824  0.69502436    -0.14780
C536        C  0.01894865  0.79031448  0.70433503    -0.14780
C537        C  0.48084709  0.77363108  0.71670795     0.07370
C538        C  0.45620886  0.73162886  0.72062290    -0.14780
H539        H  0.44911927  0.67495847  0.71066411     0.11360
H540        H  0.06118103  0.77877416  0.68415586     0.11360
H541        H  0.03843551  0.82264713  0.70089050     0.11360
H542        H  0.42666434  0.71805509  0.72942702     0.11360
C543        C  0.97852172  0.49557755  0.69175546    -0.14780
C544        C  0.00140830  0.51161162  0.64787339     0.07370
C545        C  0.48442122  0.50372546  0.60439701    -0.14780
C546        C  0.44593799  0.98034891  0.60436521    -0.14780
C547        C  0.42340382  0.96266831  0.64792354     0.07370
C548        C  0.93984629  0.97410593  0.69150369    -0.14780
H549        H  0.98975411  0.49731229  0.72653245     0.11360
H550        H  0.50094258  0.51490164  0.57005129     0.11360
H551        H  0.43415335  0.97119526  0.57061091     0.11360
H552        H  0.92338264  0.96086146  0.72610606     0.11360
C553        C  0.04570561  0.62813516  0.44709892    -0.14780
C554        C  0.07629638  0.64972622  0.47431120     0.07370
C555        C  0.10902389  0.65052241  0.46524571    -0.14780
C556        C  0.10876311  0.62404157  0.43693337    -0.14780
C557        C  0.07629878  0.59751840  0.41587238     0.07370
C558        C  0.04549057  0.60135585  0.41813173    -0.14780
H559        H  0.02027184  0.62774183  0.45328859     0.11360
H560        H  0.13306272  0.66749157  0.48524942     0.11360
H561        H  0.13375772  0.62325604  0.43298170     0.11360
H562        H  0.02118970  0.58284714  0.39937462     0.11360
C563        C  0.30750383  0.83574205  0.90239190    -0.14780
C564        C  0.30991621  0.87296344  0.88939704     0.07370
C565        C  0.31588184  0.88780310  0.83938550    -0.14780
C566        C  0.32446299  0.86952692  0.80502536    -0.14780
C567        C  0.32814640  0.83625796  0.81963331     0.07370
C568        C  0.31773125  0.81851056  0.86855557    -0.14780
H569        H  0.30398115  0.82363069  0.94045391     0.11360
H570        H  0.31916468  0.91679406  0.82757874     0.11360
H571        H  0.33225411  0.88428857  0.76779307     0.11360
H572        H  0.32008856  0.79295242  0.88145082     0.11360
C573        C  0.99533181  0.58384155  0.17407945    -0.14780
C574        C  0.48311869  0.55580889  0.14012618     0.07370
C575        C  0.50800796  0.54383916  0.12978567    -0.14780
C576        C  0.04168531  0.55648243  0.15190439    -0.14780
C577        C  0.05324645  0.58211041  0.18768568     0.07370
C578        C  0.02959322  0.59660396  0.19750823    -0.14780
H579        H  0.97785541  0.59468622  0.18409738     0.11360
H580        H  0.50062885  0.52330965  0.10453256     0.11360
H581        H  0.05811834  0.54426008  0.14256136     0.11360
H582        H  0.03655457  0.61627747  0.22483175     0.11360
C583        C  0.27740374  0.00721739  0.93209957    -0.14780
C584        C  0.29803123  0.02492138  0.97101888     0.07370
C585        C  0.28724407  0.04556714  0.99815372    -0.14780
C586        C  0.25484822  0.04545487  0.98930160    -0.14780
C587        C  0.23246729  0.52473351  0.95323083     0.07370
C588        C  0.24499760  0.50720614  0.92326242    -0.14780
H589        H  0.28506353  0.99136172  0.91016649     0.11360
H590        H  0.30264180  0.05995850  0.02806800     0.11360
H591        H  0.24630146  0.05978672  0.01248644     0.11360
H592        H  0.22848574  0.49107079  0.89500094     0.11360
C593        C  0.46774201  0.49698129  0.02907232    -0.14780
C594        C  0.46111888  0.95769154  0.03694547     0.07370
C595        C  0.48828375  0.95166789  0.01889629    -0.14780
C596        C  0.02334202  0.98502350  0.00273176    -0.14780
C597        C  0.03067800  0.02430244  0.00228809     0.07370
C598        C  0.00225752  0.53020301  0.01219369    -0.14780
H599        H  0.44673615  0.50299557  0.03372753     0.11360
H600        H  0.48365571  0.92166026  0.02202712     0.11360
H601        H  0.04549911  0.97996147  0.99681705     0.11360
H602        H  0.00732643  0.56032739  0.01075900     0.11360
C603        C  0.44195657  0.55690717  0.89328426    -0.14780
C604        C  0.45011360  0.52786615  0.91289459     0.07370
C605        C  0.48531058  0.53458043  0.90261534    -0.14780
C606        C  0.50950204  0.56597268  0.86704921    -0.14780
C607        C  0.49663893  0.58760704  0.83905016     0.07370
C608        C  0.46517367  0.58666600  0.85555256    -0.14780
H609        H  0.41556053  0.55367039  0.90250362     0.11360
H610        H  0.49261561  0.51346167  0.91810438     0.11360
H611        H  0.03460850  0.56752023  0.85478783     0.11360
H612        H  0.45544059  0.60387293  0.83458492     0.11360
C613        C  0.01038760  0.95837137  0.12399720    -0.14780
C614        C  0.03472047  0.94504451  0.13083305     0.07370
C615        C  0.02382854  0.91387520  0.17115513    -0.14780
C616        C  0.48960604  0.89748062  0.20188727    -0.14780
C617        C  0.46515056  0.91181579  0.19343811     0.07370
C618        C  0.47690294  0.94221914  0.15281862    -0.14780
H619        H  0.01894367  0.98383132  0.09678719     0.11360
H620        H  0.04239974  0.90353146  0.18044273     0.11360
H621        H  0.48346963  0.87530853  0.23333727     0.11360
H622        H  0.46130258  0.95635625  0.14463488     0.11360
C623        C  0.44851874  0.01284406  0.48108940    -0.14780
C624        C  0.40949673  0.99084602  0.48767555     0.07370
C625        C  0.39320532  0.50329163  0.52041884    -0.14780
C626        C  0.41568940  0.53580922  0.54709043    -0.14780
C627        C  0.45504228  0.55659516  0.54152552     0.07370
C628        C  0.47054252  0.54448144  0.50741622    -0.14780
H629        H  0.46233568  0.00505851  0.45571311     0.11360
H630        H  0.36319622  0.48816595  0.52514744     0.11360
H631        H  0.40234800  0.54379265  0.57285217     0.11360
H632        H  0.50033814  0.55841530  0.50267568     0.11360
C633        C  0.26467787  0.77226540  0.30694825    -0.14780
C634        C  0.28244522  0.77703852  0.35006922     0.07370
C635        C  0.26697502  0.74499700  0.38863023    -0.14780
C636        C  0.23455919  0.70824000  0.38374950    -0.14780
C637        C  0.21646472  0.70338061  0.34071479     0.07370
C638        C  0.23168379  0.73586217  0.30248238    -0.14780
H639        H  0.27591735  0.79696517  0.27718162     0.11360
H640        H  0.28015397  0.74840801  0.42239914     0.11360
H641        H  0.22361461  0.68362196  0.41362658     0.11360
H642        H  0.21863096  0.73276506  0.26865372     0.11360
C643        C  0.50473015  0.50274684  0.25876962    -0.14780
C644        C  0.49742880  0.00667312  0.30638938     0.07370
C645        C  0.50382753  0.98500051  0.34484544    -0.14780
C646        C  0.01477941  0.95879324  0.33511175    -0.14780
C647        C  0.03125062  0.46400130  0.28873535     0.07370
C648        C  0.02316005  0.48327942  0.24989159    -0.14780
H649        H  0.49526955  0.51383504  0.22873736     0.11360
H650        H  0.49621579  0.98449275  0.38219008     0.11360
H651        H  0.01704540  0.94042442  0.36544301     0.11360
H652        H  0.03352716  0.48592839  0.21325471     0.11360
C653        C  0.46788220  0.89578179  0.46041952    -0.14780
C654        C  0.43378835  0.87259721  0.44126863     0.07370
C655        C  0.41258986  0.83040497  0.45786922    -0.14780
C656        C  0.41756442  0.81584974  0.50348780    -0.14780
C657        C  0.44619296  0.84261670  0.52914883     0.07370
C658        C  0.47535970  0.87878985  0.50238577    -0.14780
H659        H  0.48610973  0.92772168  0.44744001     0.11360
H660        H  0.38746484  0.81047290  0.44136655     0.11360
H661        H  0.39554745  0.78661402  0.52171393     0.11360
H662        H  0.50016890  0.89791841  0.51909810     0.11360
C663        C  0.30022536  0.88841877  0.21471451    -0.14780
C664        C  0.32025923  0.91880916  0.24370688     0.07370
C665        C  0.31636253  0.95222328  0.23848437    -0.14780
C666        C  0.30630742  0.96233282  0.19409210    -0.14780
C667        C  0.30514923  0.94087441  0.15668268     0.07370
C668        C  0.29160276  0.89969942  0.16983762    -0.14780
H669        H  0.29991698  0.86056251  0.22022674     0.11360
H670        H  0.32874830  0.97459251  0.26285468     0.11360
H671        H  0.31134743  0.99246193  0.18572985     0.11360
H672        H  0.28547801  0.88042628  0.14215893     0.11360
O673        O  0.81077728  0.33294424  0.39153882    -0.82320
O674        O  0.95568719  0.50784309  0.35844001    -0.67010
O675        O  0.86410271  0.40739629  0.36083604    -1.13610
C676        C  0.93174258  0.40395919  0.22721319     1.04570
O677        O  0.95027116  0.51774489  0.28264390    -0.80220
O678        O  0.88438131  0.46065410  0.25479585    -0.67800
Ni679      Ni  0.84279902  0.37880737  0.42372936     1.34870
C680        C  0.85590616  0.42504431  0.25723468     0.83300
O681        O  0.89210128  0.47495425  0.40964689    -0.80760
O682        O  0.87318949  0.42241917  0.46424734    -0.91030
C683        C  0.97088555  0.51883787  0.31589855     0.82880
O684        O  0.87879340  0.36604582  0.42123135    -0.69230
O685        O  0.92026484  0.42762252  0.21546918    -0.88520
C686        C  0.91350035  0.39094174  0.41955585     0.83710
C687        C  0.88850408  0.46068992  0.45332179     1.05270
H688        H  0.94529599  0.43599550  0.31677682     0.37080
O689        O  0.92542469  0.44008803  0.30985233    -1.11180
O690        O  0.85840750  0.39445670  0.26694069    -0.67830
Ni691      Ni  0.88601840  0.38746062  0.31633528     1.26350
O692        O  0.92838638  0.42941090  0.40608844    -0.68060
O693        O  0.91604793  0.37836968  0.26733743    -0.80350
C694        C  0.81473814  0.31653998  0.35672812     0.83090
O695        O  0.84423351  0.33243170  0.32754473    -0.67530
Ni696      Ni  0.93440820  0.47272651  0.24894107     1.27450
Ni697      Ni  0.90938796  0.45704566  0.36138542     1.26060
H698        H  0.84614043  0.41253002  0.34654383     0.37630
O699        O  0.84326159  0.53186593  0.02532002    -0.82320
O700        O  0.90675572  0.42559559  0.09226635    -0.67010
O701        O  0.88796036  0.00159223  0.02795431    -1.13610
C702        C  0.82976459  0.40294527  0.92342063     1.04570
O703        O  0.90847422  0.39547482  0.03356359    -0.80220
O704        O  0.92551996  0.96156678  0.95734234    -0.67800
Ni705      Ni  0.88620366  0.04071786  0.05940819     1.34870
C706        C  0.92005718  0.98914139  0.93813103     0.83300
O707        O  0.92924656  0.99865679  0.11199859    -0.80760
O708        O  0.93194537  0.05642131  0.09531077    -0.91030
C709        C  0.92576715  0.42249080  0.05963281     0.82880
O710        O  0.85206846  0.50126288  0.11054312    -0.69230
O711        O  0.86313078  0.41288874  0.92413967    -0.88520
C712        C  0.83808606  0.46337722  0.12132813     0.83710
C713        C  0.94543809  0.03618294  0.11542328     1.05270
H714        H  0.84339404  0.40422861  0.03973882     0.37080
O715        O  0.86494826  0.42732218  0.02112498    -1.11180
O716        O  0.88797472  0.98419213  0.93820935    -0.67830
Ni717      Ni  0.85028464  0.46107738  0.99014417     1.26350
O718        O  0.85307439  0.44489327  0.10702378    -0.68060
O719        O  0.81678910  0.41834048  0.95029088    -0.80350
C720        C  0.82757712  0.51776000  0.98704257     0.83090
O721        O  0.83440086  0.49601226  0.96369218    -0.67530
Ni722      Ni  0.88587336  0.40679685  0.97951018     1.27450
Ni723      Ni  0.89694239  0.96429497  0.06492779     1.26060
H724        H  0.90953969  0.01965395  0.00579161     0.37630
O725        O  0.55699079  0.04866172  0.68535874    -0.82320
O726        O  0.54270036  0.19292990  0.69932460    -0.67010
O727        O  0.52422638  0.09096346  0.67972304    -1.13610
C728        C  0.56858788  0.15425694  0.52318113     1.04570
O729        O  0.50103494  0.17832079  0.64379974    -0.80220
O730        O  0.47900652  0.11643521  0.58419632    -0.67800
Ni731      Ni  0.52661058  0.05449905  0.72809088     1.34870
C732        C  0.98176566  0.08768062  0.57243706     0.83300
O733        O  0.01881530  0.12575060  0.76164775    -0.80700
O734        O  0.99575677  0.05942371  0.77151222    -0.91030
C735        C  0.51840517  0.19800399  0.67838877     0.82880
O736        O  0.56926692  0.09359612  0.75372243    -0.69230
O737        O  0.54564606  0.16541088  0.53031637    -0.88520
C738        C  0.59233625  0.13117731  0.74283724     0.83710
C739        C  0.00374817  0.09152046  0.78762226     1.05270
H740        H  0.57795524  0.18182107  0.62438232     0.37080
O741        O  0.55283851  0.15843607  0.62768576    -1.11180
O742        O  0.51004207  0.08605411  0.58268123    -0.67830
Ni743      Ni  0.55395106  0.11325000  0.61765921     1.26350
O744        O  0.58538513  0.15515122  0.71515693    -0.68060
O745        O  0.58056244  0.13994311  0.55694887    -0.80350
C746        C  0.54218727  0.03997131  0.64626270     0.83090
O747        O  0.55750531  0.06750634  0.61040280    -0.67530
Ni748      Ni  0.52301868  0.17045873  0.58769390     1.27450
Ni749      Ni  0.53557975  0.14171223  0.69422489     1.26060
H750        H  0.99837987  0.07735174  0.67287573     0.37630
O751        O  0.57841863  0.96160124  0.32688437    -0.82320
O752        O  0.68084747  0.13163124  0.35805067    -0.67010
O753        O  0.60152866  0.03572090  0.32195636    -1.13610
C754        C  0.67792469  0.09299669  0.18591415     1.04570
O755        O  0.66217949  0.16098229  0.30076374    -0.80220
O756        O  0.61232725  0.12249035  0.22686921    -0.67800
Ni757      Ni  0.57047858  0.99355048  0.36682679     1.34870
C758        C  0.58700753  0.08797871  0.21583574     0.83300
O759        O  0.60637680  0.09337394  0.35191922    -0.80760
O760        O  0.56483656  0.03352490  0.39917633    -0.91030
C761        C  0.68439629  0.16347619  0.33357682     0.82880
O762        O  0.60901243  0.99745114  0.40477090    -0.69230
O763        O  0.67393107  0.12328256  0.18415093    -0.88520
C764        C  0.61860897  0.02187750  0.43473541     0.83710
C765        C  0.57981838  0.07241534  0.38531958     1.05270
H766        H  0.68042223  0.09742462  0.27681098     0.37080
O767        O  0.65614839  0.09408110  0.27818242    -1.11180
O768        O  0.59002208  0.05711147  0.22579856    -0.67830
Ni769      Ni  0.62329241  0.04284738  0.25969835     1.26350
O770        O  0.63182022  0.05902996  0.41753843    -0.68060
O771        O  0.65075751  0.05679202  0.19977773    -0.80350
C772        C  0.56600682  0.96421046  0.28594768     0.83090
O773        O  0.58958658  0.98689781  0.24983714    -0.67530
Ni774      Ni  0.66461635  0.14139132  0.24131831     1.27450
Ni775      Ni  0.64217551  0.07946582  0.34627923     1.26060
H776        H  0.58366306  0.04226751  0.31085430     0.37630
O777        O  0.57741988  0.55483406  0.05071212    -0.82320
O778        O  0.68062847  0.02332006  0.98741578    -0.67010
O779        O  0.63138438  0.04158659  0.01396376    -1.13610
C780        C  0.56044785  0.48659713  0.88201652     1.04570
O781        O  0.67490252  0.99890661  0.91768749    -0.80220
O782        O  0.64329607  0.03712356  0.86200842    -0.67800
Ni783      Ni  0.62252067  0.05932703  0.07000479     1.34870
C784        C  0.64595470  0.06848106  0.87465593     0.83300
O785        O  0.65972796  0.00529975  0.07948653    -0.80760
O786        O  0.66760779  0.06493782  0.08834349    -0.91030
C787        C  0.69387100  0.01570848  0.95218705     0.82880
O788        O  0.59311823  0.50772997  0.11208445    -0.69230
O789        O  0.57854878  0.46915138  0.87988827    -0.88520
C790        C  0.57317355  0.47203299  0.10139930     0.83710
C791        C  0.67955628  0.04109085  0.08987661     1.05270
H792        H  0.58419410  0.46126090  0.97002810     0.37080
O793        O  0.60787337  0.48646066  0.96247776    -1.11180
O794        O  0.64130331  0.06983952  0.91901337    -0.67830
Ni795      Ni  0.59977742  0.52886358  0.96256389     1.26350
O796        O  0.58300011  0.46263942  0.06326070    -0.68060
O797        O  0.56750058  0.51333527  0.90948552    -0.80350
C798        C  0.56797949  0.55601704  0.00773421     0.83090
O799        O  0.59143756  0.56950044  0.97186919    -0.67530
Ni800      Ni  0.62622884  0.48442426  0.90025489     1.27450
Ni801      Ni  0.63228822  0.99359189  0.02262230     1.26060
H802        H  0.65569834  0.06372367  0.00044256     0.37630
O803        O  0.93767849  0.28629119  0.75147239    -0.82320
O804        O  0.87727355  0.40142021  0.69035726    -0.67010
O805        O  0.90923095  0.32658131  0.70636870    -1.13610
C806        C  0.51424945  0.43151369  0.59848356     1.04570
O807        O  0.88831851  0.40270131  0.61517076    -0.80220
O808        O  0.91723701  0.36458998  0.57707280    -0.67800
Ni809      Ni  0.90659788  0.30483029  0.77276063     1.34870
C810        C  0.93549206  0.34760264  0.57691479     0.83300
O811        O  0.84739748  0.33022394  0.74115404    -0.80760
O812        O  0.87327945  0.31849071  0.80326628    -0.91030
C813        C  0.88991494  0.42204619  0.64921586     0.82880
O814        O  0.94765519  0.35688567  0.77986598    -0.69230
O815        O  0.48803012  0.43331243  0.57811202    -0.88520
C816        C  0.44559748  0.38829718  0.77539387     0.83710
C817        C  0.84919612  0.32578984  0.78655477     1.05270
H818        H  0.45622143  0.42163298  0.67550330     0.37080
O819        O  0.93995974  0.39804181  0.66089606    -1.11180
O820        O  0.95038462  0.34264024  0.61413883    -0.67830
Ni821      Ni  0.96001404  0.36575344  0.67393336     1.26350
O822        O  0.92027294  0.39068723  0.75351797    -0.68060
O823        O  0.50859398  0.40813931  0.63892019    -0.80350
C824        C  0.96559050  0.29943277  0.72078249     0.83090
O825        O  0.97955313  0.33235719  0.69159445    -0.67530
Ni826      Ni  0.93712898  0.41622357  0.59617788     1.27450
Ni827      Ni  0.89280362  0.36359839  0.70024925     1.26060
H828        H  0.89494914  0.30513078  0.68734453     0.37630
C829        C  0.49326664  0.45307301  0.87060862    -0.14780
C830        C  0.53018667  0.47404801  0.85040245     0.07370
C831        C  0.53783369  0.47225816  0.80198298    -0.14780
C832        C  0.50935995  0.44606407  0.77588946    -0.14780
C833        C  0.47295712  0.42250889  0.79756649     0.07370
C834        C  0.46452107  0.42757795  0.84389019    -0.14780
H835        H  0.48709047  0.45280676  0.90846166     0.11360
H836        H  0.56632832  0.48796520  0.78618161     0.11360
H837        H  0.51602052  0.44223455  0.74007360     0.11360
H838        H  0.93635452  0.40905031  0.86095485     0.11360
C839        C  0.59426180  0.46419133  0.50478835    -0.14780
C840        C  0.60420138  0.00421851  0.48703301     0.07370
C841        C  0.59067644  0.02193707  0.51479591    -0.14780
C842        C  0.56471283  0.49896920  0.55511421    -0.14780
C843        C  0.55196880  0.45805548  0.57050577     0.07370
C844        C  0.56892471  0.44164406  0.54631471    -0.14780
H845        H  0.60366201  0.44910653  0.48413899     0.11360
H846        H  0.59673734  0.05205195  0.50231697     0.11360
H847        H  0.55182675  0.51224388  0.57144081     0.11360
H848        H  0.55945814  0.41005114  0.55592276     0.11360
C849        C  0.73389052  0.12060609  0.12872798    -0.14780
C850        C  0.71412093  0.09786056  0.17327260     0.07370
C851        C  0.71593836  0.06350272  0.18939736    -0.14780
C852        C  0.71718942  0.04184034  0.15390878    -0.14780
C853        C  0.71759714  0.05711765  0.10579888     0.07370
C854        C  0.73942861  0.09981799  0.09524087    -0.14780
H855        H  0.73679026  0.14928164  0.11606485     0.11360
H856        H  0.70554880  0.04773619  0.22606412     0.11360
H857        H  0.70738762  0.01020612  0.16405846     0.11360
H858        H  0.74737994  0.11411476  0.05776928     0.11360
C859        C  0.64579581  0.12387537  0.75246286    -0.14780
C860        C  0.62739031  0.14288814  0.76633875     0.07370
C861        C  0.62690229  0.14747413  0.81565443    -0.14780
C862        C  0.63755747  0.12714641  0.85060145    -0.14780
C863        C  0.64908623  0.10156433  0.83731380     0.07370
C864        C  0.65535244  0.10241647  0.78739657    -0.14780
H865        H  0.64635932  0.11909112  0.71504039     0.11360
H866        H  0.61252744  0.16111295  0.82831594     0.11360
H867        H  0.63248815  0.12776813  0.88853916     0.11360
H868        H  0.66432652  0.08348694  0.77534380     0.11360
C869        C  0.96897235  0.20696762  0.71002482    -0.14780
C870        C  0.50678605  0.22364710  0.69656017     0.07370
C871        C  0.53191820  0.26533585  0.69498970    -0.14780
C872        C  0.51891180  0.29030149  0.70427929    -0.14780
C873        C  0.98082124  0.27360671  0.71675441     0.07370
C874        C  0.95620285  0.23159197  0.72080009    -0.14780
H875        H  0.94912763  0.17490416  0.71096257     0.11360
H876        H  0.56113724  0.27877056  0.68403409     0.11360
H877        H  0.53838485  0.32264220  0.70073491     0.11360
H878        H  0.92666617  0.21800544  0.72968655     0.11360
C879        C  0.47848161  0.99557773  0.69167911    -0.14780
C880        C  0.50137593  0.01160269  0.64780396     0.07370
C881        C  0.98439712  0.00370827  0.60432181    -0.14780
C882        C  0.94596045  0.48038133  0.60444951    -0.14780
C883        C  0.92343221  0.46269513  0.64801225     0.07370
C884        C  0.43988497  0.47411360  0.69159226    -0.14780
H885        H  0.48970318  0.99731870  0.72646191     0.11360
H886        H  0.00092257  0.01488643  0.56997884     0.11360
H887        H  0.93416698  0.47124124  0.57069550     0.11360
H888        H  0.42342645  0.46086421  0.72619777     0.11360
C889        C  0.54567039  0.12814296  0.44711098    -0.14780
C890        C  0.57625721  0.14975061  0.47432119     0.07370
C891        C  0.60900170  0.15058257  0.46523947    -0.14780
C892        C  0.60876459  0.12411910  0.43691451    -0.14780
C893        C  0.57630403  0.09757282  0.41586544     0.07370
C894        C  0.54547541  0.10137422  0.41814146    -0.14780
H895        H  0.52022515  0.12772495  0.45330888     0.11360
H896        H  0.63303808  0.16756475  0.48524127     0.11360
H897        H  0.63377104  0.12335627  0.43295405     0.11360
H898        H  0.52117414  0.08284470  0.39939687     0.11360
C899        C  0.80747266  0.33570635  0.90247195    -0.14780
C900        C  0.80987151  0.37292226  0.88949169     0.07370
C901        C  0.81583278  0.38776833  0.83948178    -0.14780
C902        C  0.82442786  0.36950951  0.80511154    -0.14780
C903        C  0.82812613  0.33624880  0.81970570     0.07370
C904        C  0.81771244  0.31849142  0.86862533    -0.14780
H905        H  0.80395236  0.32358884  0.94053121     0.11360
H906        H  0.81910419  0.41675495  0.82768445     0.11360
H907        H  0.83221676  0.38427847  0.76788183     0.11360
H908        H  0.82007907  0.29293794  0.88151071     0.11360
C909        C  0.49533845  0.08384210  0.17400148    -0.14780
C910        C  0.98308267  0.05574570  0.14012338     0.07370
C911        C  0.00793438  0.04371208  0.12984719    -0.14780
C912        C  0.54161971  0.05636496  0.15194835    -0.14780
C913        C  0.55322071  0.08205602  0.18766285     0.07370
C914        C  0.52960257  0.09660563  0.19742431    -0.14780
H915        H  0.47789374  0.09473989  0.18396544     0.11360
H916        H  0.00052087  0.02312779  0.10465733     0.11360
H917        H  0.55802454  0.04409822  0.14265147     0.11360
H918        H  0.53659602  0.11633135  0.22469259     0.11360
C919        C  0.77742057  0.50725621  0.93212234    -0.14780
C920        C  0.79803700  0.52494249  0.97105628     0.07370
C921        C  0.78725434  0.54559294  0.99818904    -0.14780
C922        C  0.75486919  0.54549908  0.98932087    -0.14780
C923        C  0.73243829  0.02467553  0.95322491     0.07370
C924        C  0.74496904  0.00714876  0.92325549    -0.14780
H925        H  0.78507949  0.49140046  0.91018811     0.11360
H926        H  0.80264473  0.55997110  0.02811440     0.11360
H927        H  0.74632248  0.55983152  0.01250464     0.11360
H928        H  0.72845018  0.99100138  0.89500562     0.11360
C929        C  0.96771218  0.99691914  0.02912692    -0.14780
C930        C  0.96116335  0.45776018  0.03691394     0.07370
C931        C  0.98833074  0.45174039  0.01886650    -0.14780
C932        C  0.52338006  0.48509746  0.00267536    -0.14780
C933        C  0.53070549  0.52437446  0.00220010     0.07370
C934        C  0.50223584  0.03013867  0.01228105    -0.14780
H935        H  0.94671140  0.00294205  0.03376695     0.11360
H936        H  0.98371297  0.42173632  0.02201904     0.11360
H937        H  0.54554097  0.48004099  0.99676472     0.11360
H938        H  0.50731231  0.06026505  0.01086331     0.11360
C939        C  0.94211513  0.05697283  0.89343027    -0.14780
C940        C  0.95020894  0.02786853  0.91298345     0.07370
C941        C  0.98537717  0.03451544  0.90267546    -0.14780
C942        C  0.00958397  0.06589372  0.86710678    -0.14780
C943        C  0.99675721  0.08758064  0.83913989     0.07370
C944        C  0.96534527  0.08672103  0.85569642    -0.14780
H945        H  0.91574715  0.05378846  0.90268457     0.11360
H946        H  0.99263848  0.01335096  0.91813366     0.11360
H947        H  0.53465669  0.06738665  0.85481192     0.11360
H948        H  0.95564738  0.10397773  0.83476218     0.11360
C949        C  0.51042026  0.45847375  0.12396890    -0.14780
C950        C  0.53473389  0.44511726  0.13076566     0.07370
C951        C  0.52381859  0.41390241  0.17103745    -0.14780
C952        C  0.98959317  0.39749644  0.20176675    -0.14780
C953        C  0.96516007  0.41186627  0.19336468     0.07370
C954        C  0.97693815  0.44231957  0.15279499    -0.14780
H955        H  0.51898586  0.48394878  0.09677755     0.11360
H956        H  0.54237253  0.40352818  0.18028860     0.11360
H957        H  0.98343456  0.37528225  0.23317689     0.11360
H958        H  0.96136025  0.45648885  0.14465135     0.11360
C959        C  0.94856494  0.51280283  0.48109413    -0.14780
C960        C  0.90954243  0.49082682  0.48765499     0.07370
C961        C  0.89315666  0.00327657  0.52048376    -0.14780
C962        C  0.91563978  0.03578620  0.54716741    -0.14780
C963        C  0.95499364  0.05659339  0.54157515     0.07370
C964        C  0.97049455  0.04450992  0.50742810    -0.14780
H965        H  0.96238003  0.50499699  0.45574174     0.11360
H966        H  0.86314664  0.98812981  0.52523909     0.11360
H967        H  0.90229782  0.04374429  0.57296167     0.11360
H968        H  0.00029041  0.05845327  0.50267451     0.11360
C969        C  0.76475314  0.27223704  0.30684307    -0.14780
C970        C  0.78245571  0.27703858  0.35001989     0.07370
C971        C  0.76692000  0.24502797  0.38862130    -0.14780
C972        C  0.73450437  0.20827479  0.38372968    -0.14780
C973        C  0.71647329  0.20339044  0.34064112     0.07370
C974        C  0.73175627  0.23583976  0.30236501    -0.14780
H975        H  0.77604479  0.29691078  0.27703975     0.11360
H976        H  0.78004933  0.24845882  0.42243040     0.11360
H977        H  0.72350915  0.18367922  0.41364043     0.11360
H978        H  0.71875273  0.23271865  0.26849565     0.11360
C979        C  0.00470183  0.00274014  0.25884477    -0.14780
C980        C  0.99745332  0.50666095  0.30632268     0.07370
C981        C  0.00384367  0.48496706  0.34476345    -0.14780
C982        C  0.51479649  0.45876565  0.33500415    -0.14780
C983        C  0.53121291  0.96399213  0.28884080     0.07370
C984        C  0.52311561  0.98325248  0.24998451    -0.14780
H985        H  0.99524242  0.01382262  0.22880579     0.11360
H986        H  0.99622734  0.48444105  0.38211134     0.11360
H987        H  0.51705762  0.44038413  0.36532374     0.11360
H988        H  0.53346350  0.98586899  0.21334755     0.11360
C989        C  0.96789300  0.39576366  0.46039709    -0.14780
C990        C  0.93381000  0.37257574  0.44122599     0.07370
C991        C  0.91259960  0.33038763  0.45785307    -0.14780
C992        C  0.91753799  0.31585351  0.50350889    -0.14780
C993        C  0.94615812  0.34262865  0.52917266     0.07370
C994        C  0.97533843  0.37879146  0.50240977    -0.14780
H995        H  0.98613141  0.42769850  0.44739667     0.11360
H996        H  0.88748359  0.31045148  0.44133718     0.11360
H997        H  0.89550717  0.28662902  0.52174238     0.11360
H998        H  0.00013491  0.39792848  0.51913553     0.11360
C999        C  0.80020755  0.38843237  0.21476651    -0.14780
C1000       C  0.82024914  0.41881508  0.24376518     0.07370
C1001       C  0.81636784  0.45223896  0.23854381    -0.14780
C1002       C  0.80635354  0.46237760  0.19413471    -0.14780
C1003       C  0.80519609  0.44091902  0.15672508     0.07370
C1004       C  0.79163120  0.39973893  0.16986934    -0.14780
H1005       H  0.79987711  0.36056374  0.22028542     0.11360
H1006       H  0.82875295  0.47460049  0.26292373     0.11360
H1007       H  0.81141796  0.49251727  0.18577443     0.11360
H1008       H  0.78551715  0.38047269  0.14218515     0.11360
O1009       O  0.81075231  0.83294906  0.39157730    -0.82320
O1010       O  0.95565073  0.00785521  0.35848062    -0.67010
O1011       O  0.86407676  0.90740135  0.36086585    -1.13610
C1012       C  0.93174635  0.90394349  0.22728580     1.04570
O1013       O  0.95024492  0.01774258  0.28267897    -0.80220
O1014       O  0.88437606  0.96064551  0.25480039    -0.67800
Ni1015     Ni  0.84276401  0.87881883  0.42376361     1.34870
C1016       C  0.85590401  0.92503596  0.25723119     0.83300
O1017       O  0.89205849  0.97496339  0.40966688    -0.80760
O1018       O  0.87314239  0.92243534  0.46427964    -0.91030
C1019       C  0.97085573  0.01884658  0.31594323     0.82880
O1020       O  0.87876367  0.86606214  0.42130033    -0.69230
O1021       O  0.92028289  0.92761821  0.21552130    -0.88520
C1022       C  0.91347150  0.89096023  0.41961514     0.83710
C1023       C  0.88845835  0.96070509  0.45334601     1.05270
H1024       H  0.94531312  0.93595740  0.31685413     0.37080
O1025       O  0.92538586  0.94009356  0.30989844    -1.11180
O1026       O  0.85840180  0.89444889  0.26697143    -0.67830
Ni1027     Ni  0.88600617  0.88746225  0.31638941     1.26350
O1028       O  0.92835574  0.92942846  0.40614085    -0.68060
O1029       O  0.91604293  0.87836314  0.26741597    -0.80350
C1030       C  0.81472231  0.81654187  0.35677687     0.83090
O1031       O  0.84422099  0.83243272  0.32760158    -0.67530
Ni1032     Ni  0.93440589  0.97272169  0.24898729     1.27450
Ni1033     Ni  0.90936109  0.95705258  0.36142077     1.26060
H1034       H  0.84611828  0.91252990  0.34655812     0.37630
O1035       O  0.84324041  0.03183011  0.02530356    -0.82320
O1036       O  0.90669173  0.92553464  0.09225821    -0.67010
O1037       O  0.88796534  0.50160820  0.02797566    -1.13610
C1038       C  0.82980503  0.90298680  0.92332567     1.04570
O1039       O  0.90841835  0.89541778  0.03355569    -0.80220
O1040       O  0.92550606  0.46159726  0.95732836    -0.67800
Ni1041     Ni  0.88622301  0.54074799  0.05942310     1.34870
C1042       C  0.92000390  0.48914070  0.93810782     0.83300
O1043       O  0.92930625  0.49871553  0.11197978    -0.80760
O1044       O  0.93196423  0.55645873  0.09532955    -0.91030
C1045       C  0.92570911  0.92242500  0.05963815     0.82880
O1046       O  0.85204566  0.00122832  0.11052850    -0.69230
O1047       O  0.86316640  0.91291779  0.92407469    -0.88520
C1048       C  0.83804430  0.96333688  0.12129003     0.83710
C1049       C  0.94547520  0.53623452  0.11542520     1.05270
H1050       H  0.84336230  0.90421787  0.03966229     0.37080
O1051       O  0.86493129  0.92730972  0.02107043    -1.11180
O1052       O  0.88791048  0.48416126  0.93823628    -0.67830
Ni1053     Ni  0.85030548  0.96109614  0.99007198     1.26350
O1054       O  0.85302083  0.94484743  0.10696999    -0.68060
O1055       O  0.81682658  0.91838811  0.95017858    -0.80350
C1056       C  0.82758696  0.01775994  0.98699502     0.83090
O1057       O  0.83445367  0.99606008  0.96360989    -0.67530
Ni1058     Ni  0.88586042  0.90677652  0.97947432     1.27450
Ni1059     Ni  0.89697909  0.46433419  0.06494403     1.26060
H1060       H  0.90952947  0.51966421  0.00578704     0.37630
O1061       O  0.55701133  0.54871670  0.68542312    -0.82320
O1062       O  0.54272773  0.69297547  0.69923903    -0.67010
O1063       O  0.52422846  0.59099439  0.67968976    -1.13610
C1064       C  0.56863575  0.65425534  0.52315983     1.04570
O1065       O  0.50106606  0.67835228  0.64370784    -0.80220
O1066       O  0.47904875  0.61645138  0.58412218    -0.67800
Ni1067     Ni  0.52658276  0.55453730  0.72809483     1.34870
C1068       C  0.98181025  0.58769305  0.57238032     0.83300
O1069       O  0.01879873  0.62579624  0.76158142    -0.80700
O1070       O  0.99567906  0.55945661  0.77143689    -0.91030
C1071       C  0.51843164  0.69804213  0.67829531     0.82880
O1072       O  0.56920443  0.59362991  0.75379710    -0.69230
O1073       O  0.54569843  0.66541897  0.53027188    -0.88520
C1074       C  0.59230932  0.63119659  0.74284337     0.83710
C1075       C  0.00367169  0.59155515  0.78754321     1.05270
H1076       H  0.57798516  0.68184246  0.62433622     0.37080
O1077       O  0.55286763  0.65845905  0.62763536    -1.11180
O1078       O  0.51008285  0.58606564  0.58264583    -0.67830
Ni1079     Ni  0.55397717  0.61326418  0.61764734     1.26350
O1080       O  0.58538620  0.65516898  0.71511073    -0.68060
O1081       O  0.58060389  0.63994447  0.55694223    -0.80350
C1082       C  0.54221834  0.53999316  0.64632526     0.83090
O1083       O  0.55753124  0.56750997  0.61044370    -0.67530
Ni1084     Ni  0.52305851  0.67047806  0.58762222     1.27450
Ni1085     Ni  0.53559043  0.64174925  0.69416539     1.26060
H1086       H  0.99838601  0.57738708  0.67282340     0.37630
O1087       O  0.57845374  0.46161412  0.32679241    -0.82320
O1088       O  0.68083907  0.63161616  0.35810188    -0.67010
O1089       O  0.60155757  0.53572011  0.32192648    -1.13610
C1090       C  0.67796906  0.59309978  0.18589491     1.04570
O1091       O  0.66216570  0.66097783  0.30084247    -0.80220
O1092       O  0.61233921  0.62252699  0.22691967    -0.67800
Ni1093     Ni  0.57048292  0.49353022  0.36675818     1.34870
C1094       C  0.58703000  0.58802307  0.21585737     0.83300
O1095       O  0.60636888  0.59334457  0.35191278    -0.80760
O1096       O  0.56482010  0.53347956  0.39913287    -0.91030
C1097       C  0.68438536  0.66346651  0.33364765     0.82880
O1098       O  0.60898324  0.49740087  0.40475651    -0.69230
O1099       O  0.67396441  0.62337600  0.18417122    -0.88520
C1100       C  0.61857633  0.52182488  0.43472610     0.83710
C1101       C  0.57980494  0.57237297  0.38530165     1.05270
H1102       H  0.68045239  0.59746770  0.27681600     0.37080
O1103       O  0.65617448  0.59411403  0.27819065    -1.11180
O1104       O  0.59005592  0.55716057  0.22578435    -0.67830
Ni1105     Ni  0.62333404  0.54289413  0.25966130     1.26350
O1106       O  0.63180023  0.55898229  0.41753633    -0.68060
O1107       O  0.65080991  0.55688576  0.19973730    -0.80350
C1108       C  0.56605531  0.46424055  0.28584933     0.83090
O1109       O  0.58964411  0.48695261  0.24975503    -0.67530
Ni1110     Ni  0.66462811  0.64143560  0.24136969     1.27450
Ni1111     Ni  0.64218209  0.57945630  0.34628455     1.26060
H1112       H  0.58368979  0.54226271  0.31082381     0.37630
O1113       O  0.57739745  0.05474313  0.05080377    -0.82320
O1114       O  0.68066081  0.52340081  0.98739088    -0.67010
O1115       O  0.63140706  0.54165797  0.01391695    -1.13610
C1116       C  0.56040660  0.98656330  0.88206433     1.04570
O1117       O  0.67493692  0.49895671  0.91768629    -0.80220
O1118       O  0.64332630  0.53715113  0.86197140    -0.67800
Ni1119     Ni  0.62253429  0.55940949  0.06994154     1.34870
C1120       C  0.64598634  0.56851316  0.87460520     0.83300
O1121       O  0.65975664  0.50539070  0.07946160    -0.80760
O1122       O  0.66761568  0.56502102  0.08831119    -0.91030
C1123       C  0.69390400  0.51577338  0.95217913     0.82880
O1124       O  0.59311745  0.00764732  0.11215222    -0.69230
O1125       O  0.57851198  0.96912498  0.87990488    -0.88520
C1126       C  0.57315782  0.97195663  0.10145564     0.83710
C1127       C  0.67957473  0.54118358  0.08984866     1.05270
H1128       H  0.58416105  0.96120333  0.97004749     0.37080
O1129       O  0.60784071  0.98640345  0.96250329    -1.11180
O1130       O  0.64134264  0.56988341  0.91896014    -0.67830
Ni1131     Ni  0.59974687  0.02880542  0.96262004     1.26350
O1132       O  0.58296847  0.96256971  0.06329590    -0.68060
O1133       O  0.56746187  0.01329071  0.90955062    -0.80350
C1134       C  0.56795299  0.05593823  0.00782984     0.83090
O1135       O  0.59140833  0.06943619  0.97195977    -0.67530
Ni1136     Ni  0.62619317  0.98438577  0.90026598     1.27450
Ni1137     Ni  0.63232050  0.49366779  0.02259548     1.26060
H1138       H  0.65572119  0.56379642  0.00039859     0.37630
O1139       O  0.93770829  0.78630985  0.75143631    -0.82320
O1140       O  0.87726658  0.90139248  0.69028511    -0.67010
O1141       O  0.90925940  0.82658754  0.70632773    -1.13610
C1142       C  0.51426572  0.93152723  0.59844959     1.04570
O1143       O  0.88831437  0.90266068  0.61510303    -0.80220
O1144       O  0.91725084  0.86455444  0.57704977    -0.67800
Ni1145     Ni  0.90662062  0.80483894  0.77272133     1.34870
C1146       C  0.93552471  0.84758895  0.57689103     0.83300
O1147       O  0.84741086  0.83020595  0.74109551    -0.80760
O1148       O  0.87329479  0.81849172  0.80321714    -0.91030
C1149       C  0.88989959  0.92200977  0.64913773     0.82880
O1150       O  0.94766751  0.85689782  0.77983678    -0.69230
O1151       O  0.48803912  0.93330107  0.57806270    -0.88520
C1152       C  0.44559904  0.88830284  0.77536336     0.83710
C1153       C  0.84921051  0.82578457  0.78649631     1.05270
H1154       H  0.45622352  0.92164096  0.67544538     0.37080
O1155       O  0.93997074  0.89804237  0.66084493    -1.11180
O1156       O  0.95043269  0.84265247  0.61411202    -0.67830
Ni1157     Ni  0.96004191  0.86577177  0.67390244     1.26350
O1158       O  0.92028180  0.89069133  0.75346154    -0.68060
O1159       O  0.50861765  0.90816803  0.63889659    -0.80350
C1160       C  0.96562710  0.79946185  0.72075540     0.83090
O1161       O  0.97959735  0.83239443  0.69158215    -0.67530
Ni1162     Ni  0.93713159  0.91619762  0.59611939     1.27450
Ni1163     Ni  0.89281636  0.86358916  0.70019440     1.26060
H1164       H  0.89498628  0.80513550  0.68730210     0.37630
C1165       C  0.49321673  0.95295337  0.87070067    -0.14780
C1166       C  0.53013482  0.97401813  0.85046837     0.07370
C1167       C  0.53778650  0.97232110  0.80201200    -0.14780
C1168       C  0.50932518  0.94614087  0.77588995    -0.14780
C1169       C  0.47292929  0.92250229  0.79758175     0.07370
C1170       C  0.46448380  0.92746847  0.84396039    -0.14780
H1171       H  0.48703966  0.95261735  0.90857773     0.11360
H1172       H  0.56628100  0.98809338  0.78619193     0.11360
H1173       H  0.51599467  0.94238620  0.74003512     0.11360
H1174       H  0.93632469  0.90887369  0.86103836     0.11360
C1175       C  0.59431541  0.96425136  0.50479683    -0.14780
C1176       C  0.60416409  0.50416418  0.48702561     0.07370
C1177       C  0.59066451  0.52189965  0.51480255    -0.14780
C1178       C  0.56471401  0.99899258  0.55509152    -0.14780
C1179       C  0.55198673  0.95808408  0.57048388     0.07370
C1180       C  0.56896681  0.94169044  0.54630894    -0.14780
H1181       H  0.60373531  0.94917979  0.48415505     0.11360
H1182       H  0.59674052  0.55202098  0.50232867     0.11360
H1183       H  0.55180524  0.01225010  0.57139928     0.11360
H1184       H  0.55951284  0.91010105  0.55591729     0.11360
C1185       C  0.73391579  0.62072156  0.12867464    -0.14780
C1186       C  0.71417200  0.59798603  0.17323489     0.07370
C1187       C  0.71600744  0.56363938  0.18935590    -0.14780
C1188       C  0.71723366  0.54196363  0.15386746    -0.14780
C1189       C  0.71762037  0.55722854  0.10575930     0.07370
C1190       C  0.73944120  0.59992816  0.09518349    -0.14780
H1191       H  0.73680253  0.64939042  0.11601026     0.11360
H1192       H  0.70563942  0.54788356  0.22603060     0.11360
H1193       H  0.70743376  0.51033068  0.16402530     0.11360
H1194       H  0.74737014  0.61421478  0.05770682     0.11360
C1195       C  0.64574106  0.62384016  0.75241100    -0.14780
C1196       C  0.62737475  0.64288868  0.76630424     0.07370
C1197       C  0.62693720  0.64750998  0.81561263    -0.14780
C1198       C  0.63761125  0.62719332  0.85054658    -0.14780
C1199       C  0.64910468  0.60158320  0.83725344     0.07370
C1200       C  0.65531670  0.60239320  0.78733380    -0.14780
H1201       H  0.64626084  0.61902448  0.71499487     0.11360
H1202       H  0.61259060  0.66117457  0.82828718     0.11360
H1203       H  0.63258399  0.62784755  0.88848605     0.11360
H1204       H  0.66425999  0.58343906  0.77527665     0.11360
C1205       C  0.96897455  0.70700839  0.70982245    -0.14780
C1206       C  0.50680165  0.72367630  0.69646377     0.07370
C1207       C  0.53194959  0.76534827  0.69502429    -0.14780
C1208       C  0.51894865  0.79031450  0.70433499    -0.14780
C1209       C  0.98084708  0.77363107  0.71670799     0.07370
C1210       C  0.95620885  0.73162885  0.72062297    -0.14780
H1211       H  0.94911925  0.67495845  0.71066421     0.11360
H1212       H  0.56118104  0.77877419  0.68415579     0.11360
H1213       H  0.53843551  0.82264714  0.70089047     0.11360
H1214       H  0.92666433  0.71805508  0.72942708     0.11360
C1215       C  0.47852170  0.49557753  0.69175555    -0.14780
C1216       C  0.50140829  0.51161160  0.64787349     0.07370
C1217       C  0.98442123  0.50372548  0.60439691    -0.14780
C1218       C  0.94593800  0.98034891  0.60436518    -0.14780
C1219       C  0.92340383  0.96266832  0.64792351     0.07370
C1220       C  0.43984627  0.97410592  0.69150373    -0.14780
H1221       H  0.48975409  0.49731228  0.72653255     0.11360
H1222       H  0.00094259  0.51490167  0.57005118     0.11360
H1223       H  0.93415337  0.97119526  0.57061088     0.11360
H1224       H  0.42338262  0.96086144  0.72610610     0.11360
C1225       C  0.54570562  0.62813511  0.44709893    -0.14780
C1226       C  0.57629638  0.64972614  0.47431121     0.07370
C1227       C  0.60902389  0.65052232  0.46524572    -0.14780
C1228       C  0.60876309  0.62404149  0.43693335    -0.14780
C1229       C  0.57629877  0.59751834  0.41587234     0.07370
C1230       C  0.54549056  0.60135581  0.41813170    -0.14780
H1231       H  0.52027184  0.62774179  0.45328860     0.11360
H1232       H  0.63306271  0.66749146  0.48524943     0.11360
H1233       H  0.63375770  0.62325595  0.43298168     0.11360
H1234       H  0.52118969  0.58284711  0.39937459     0.11360
C1235       C  0.80750381  0.83574205  0.90239187    -0.14780
C1236       C  0.80991622  0.87296346  0.88939702     0.07370
C1237       C  0.81588186  0.88780314  0.83938549    -0.14780
C1238       C  0.82446302  0.86952695  0.80502535    -0.14780
C1239       C  0.82814640  0.83625798  0.81963329     0.07370
C1240       C  0.81773123  0.81851056  0.86855554    -0.14780
H1241       H  0.80398112  0.82363068  0.94045389     0.11360
H1242       H  0.81916472  0.91679410  0.82757874     0.11360
H1243       H  0.83225416  0.88428862  0.76779306     0.11360
H1244       H  0.82008852  0.79295241  0.88145079     0.11360
C1245       C  0.49533186  0.58384158  0.17407936    -0.14780
C1246       C  0.98311865  0.55580888  0.14012625     0.07370
C1247       C  0.00800793  0.54383916  0.12978573    -0.14780
C1248       C  0.54168534  0.55648243  0.15190433    -0.14780
C1249       C  0.55324650  0.58211043  0.18768561     0.07370
C1250       C  0.52959326  0.59660399  0.19750814    -0.14780
H1251       H  0.47785546  0.59468626  0.18409728     0.11360
H1252       H  0.00062883  0.52330966  0.10453261     0.11360
H1253       H  0.55811836  0.54426008  0.14256130     0.11360
H1254       H  0.53655462  0.61627751  0.22483165     0.11360
C1255       C  0.77740375  0.00721738  0.93209955    -0.14780
C1256       C  0.79803124  0.02492139  0.97101885     0.07370
C1257       C  0.78724409  0.04556716  0.99815368    -0.14780
C1258       C  0.75484824  0.04545489  0.98930155    -0.14780
C1259       C  0.73246733  0.52473353  0.95323078     0.07370
C1260       C  0.74499763  0.50720614  0.92326240    -0.14780
H1261       H  0.78506353  0.99136170  0.91016648     0.11360
H1262       H  0.80264181  0.05995853  0.02806796     0.11360
H1263       H  0.74630148  0.05978675  0.01248638     0.11360
H1264       H  0.72848576  0.49107077  0.89500092     0.11360
C1265       C  0.96774198  0.49698126  0.02907241    -0.14780
C1266       C  0.96111886  0.95769152  0.03694552     0.07370
C1267       C  0.98828372  0.95166786  0.01889634    -0.14780
C1268       C  0.52334204  0.98502353  0.00273171    -0.14780
C1269       C  0.53067802  0.02430247  0.00228804     0.07370
C1270       C  0.50225755  0.53020305  0.01219362    -0.14780
H1271       H  0.94673612  0.50299554  0.03372762     0.11360
H1272       H  0.98365569  0.92166023  0.02202717     0.11360
H1273       H  0.54549913  0.97996150  0.99681700     0.11360
H1274       H  0.50732646  0.56032743  0.01075894     0.11360
C1275       C  0.94195667  0.55690716  0.89328436    -0.14780
C1276       C  0.95011366  0.52786611  0.91289467     0.07370
C1277       C  0.98531062  0.53458033  0.90261539    -0.14780
C1278       C  0.00950208  0.56597256  0.86704924    -0.14780
C1279       C  0.99663899  0.58760696  0.83905021     0.07370
C1280       C  0.96517377  0.58666598  0.85555264    -0.14780
H1281       H  0.91556066  0.55367043  0.90250375     0.11360
H1282       H  0.99261562  0.51346154  0.91810443     0.11360
H1283       H  0.53460849  0.56752040  0.85478783     0.11360
H1284       H  0.95544071  0.60387293  0.83458503     0.11360
C1285       C  0.51038761  0.95837139  0.12399715    -0.14780
C1286       C  0.53472049  0.94504452  0.13083300     0.07370
C1287       C  0.52382856  0.91387521  0.17115508    -0.14780
C1288       C  0.98960602  0.89748062  0.20188732    -0.14780
C1289       C  0.96515054  0.91181578  0.19343816     0.07370
C1290       C  0.97690292  0.94221913  0.15281866    -0.14780
H1291       H  0.51894369  0.98383134  0.09678715     0.11360
H1292       H  0.54239976  0.90353147  0.18044267     0.11360
H1293       H  0.98346960  0.87530853  0.23333732     0.11360
H1294       H  0.96130256  0.95635624  0.14463491     0.11360
C1295       C  0.94851873  0.01284409  0.48108941    -0.14780
C1296       C  0.90949672  0.99084604  0.48767558     0.07370
C1297       C  0.89320528  0.50329164  0.52041890    -0.14780
C1298       C  0.91568937  0.53580923  0.54709050    -0.14780
C1299       C  0.95504225  0.55659519  0.54152555     0.07370
C1300       C  0.97054248  0.54448149  0.50741620    -0.14780
H1301       H  0.96233566  0.00505854  0.45571311     0.11360
H1302       H  0.86319619  0.48816594  0.52514755     0.11360
H1303       H  0.90234797  0.54379263  0.57285228     0.11360
H1304       H  0.00033810  0.55841536  0.50267564     0.11360
C1305       C  0.76467785  0.77226541  0.30694827    -0.14780
C1306       C  0.78244519  0.77703854  0.35006925     0.07370
C1307       C  0.76697497  0.74499701  0.38863027    -0.14780
C1308       C  0.73455914  0.70824003  0.38374953    -0.14780
C1309       C  0.71646469  0.70338063  0.34071480     0.07370
C1310       C  0.73168377  0.73586219  0.30248240    -0.14780
H1311       H  0.77591734  0.79696519  0.27718164     0.11360
H1312       H  0.78015391  0.74840802  0.42239919     0.11360
H1313       H  0.72361455  0.68362199  0.41362661     0.11360
H1314       H  0.71863095  0.73276508  0.26865373     0.11360
C1315       C  0.00473008  0.50274685  0.25876968    -0.14780
C1316       C  0.99742879  0.00667313  0.30638942     0.07370
C1317       C  0.00382751  0.98500052  0.34484548    -0.14780
C1318       C  0.51477943  0.95879323  0.33511171    -0.14780
C1319       C  0.53125070  0.46400128  0.28873523     0.07370
C1320       C  0.52316012  0.48327943  0.24989149    -0.14780
H1321       H  0.99526948  0.51383503  0.22873740     0.11360
H1322       H  0.99621578  0.98449277  0.38219012     0.11360
H1323       H  0.51704542  0.94042440  0.36544296     0.11360
H1324       H  0.53352725  0.48592843  0.21325460     0.11360
C1325       C  0.96788219  0.89578180  0.46041954    -0.14780
C1326       C  0.93378833  0.87259721  0.44126866     0.07370
C1327       C  0.91258984  0.83040498  0.45786924    -0.14780
C1328       C  0.91756441  0.81584974  0.50348781    -0.14780
C1329       C  0.94619296  0.84261669  0.52914883     0.07370
C1330       C  0.97535970  0.87878984  0.50238577    -0.14780
H1331       H  0.98610971  0.92772169  0.44744003     0.11360
H1332       H  0.88746481  0.81047291  0.44136658     0.11360
H1333       H  0.89554746  0.78661401  0.52171393     0.11360
H1334       H  0.00016891  0.89791841  0.51909809     0.11360
C1335       C  0.80022534  0.88841878  0.21471453    -0.14780
C1336       C  0.82025922  0.91880918  0.24370689     0.07370
C1337       C  0.81636252  0.95222330  0.23848438    -0.14780
C1338       C  0.80630741  0.96233283  0.19409211    -0.14780
C1339       C  0.80514921  0.94087441  0.15668269     0.07370
C1340       C  0.79160274  0.89969943  0.16983764    -0.14780
H1341       H  0.79991697  0.86056252  0.22022676     0.11360
H1342       H  0.82874830  0.97459253  0.26285468     0.11360
H1343       H  0.81134741  0.99246194  0.18572986     0.11360
H1344       H  0.78547799  0.88042628  0.14215895     0.11360
loop_ 
_geom_bond_atom_site_label_1 
_geom_bond_atom_site_label_2 
_geom_bond_distance 
_geom_bond_site_symmetry_2 
_ccdc_geom_bond_type 
O1           Ni7   1.931       .  S
O1           C22   1.284       .  A
O2          Ni25   1.918       .  S
O2           C11   1.256       .  A
O3           Ni7   1.892       .  S
O3          Ni25   1.886       .  S
O3          Ni19   2.002       .  S
O3           H26   0.963       .  S
C4           O21   1.311       .  A
C4           O13   1.273       .  A
C4          C281   1.562       .  S
O5          Ni24   1.905       .  S
O5           C11   1.267       .  A
O6          Ni24   1.915       .  S
O6            C8   1.272       .  A
Ni7          O10   2.009       .  S
Ni7          O12   1.846       .  S
C8           O18   1.262       .  A
C8          C328   1.459       .  S
O9          Ni25   1.898       .  S
O9           C15   1.249       .  A
O10          C15   1.281       .  A
C11         C308   1.473       .  S
O12          C14   1.263       .  A
O13         Ni24   1.915       .  S
C14          O20   1.298       .  A
C14         C318   1.480       .  S
C15         C288   1.512       .  S
H16          O17   0.955       .  S
O17         Ni25   1.915       .  S
O17         Ni19   1.836       .  S
O17         Ni24   1.904       .  S
O18         Ni19   1.901       .  S
Ni19         O23   1.927       .  S
Ni19         O21   2.047       .  S
O20         Ni25   2.000       .  S
C22          O23   1.286       .  A
C22         C298   1.468       .  S
O27        Ni369   1.944       .  S
O27          C48   1.285   1_554  A
O28        Ni387   1.864       .  S
O28          C37   1.270       .  A
O29         Ni33   1.896       .  S
O29         Ni51   1.897   1_545  S
O29        Ni381   1.987   1_544  S
O29          H52   0.961       .  S
C30          O47   1.299       .  A
C30          O39   1.255       .  A
C30         C228   1.494       .  S
O31         Ni50   1.922   1_554  S
O31          C37   1.252       .  A
O32        Ni386   1.924       .  S
O32          C34   1.284       .  A
Ni33         O36   2.014       .  S
Ni33        O363   1.944       .  S
Ni33        O374   1.898       .  S
C34          O44   1.269       .  A
C34         C268   1.457   1_565  S
O35         Ni51   1.981       .  S
O35          C41   1.277   1_565  A
O36          C41   1.287       .  A
C37         C258   1.469       .  S
O38        Ni369   1.898       .  S
O38          C40   1.275       .  A
O39         Ni50   1.882       .  S
C40          O46   1.284       .  A
C40         C331   1.473       .  S
C41         C238   1.569       .  S
H42          O43   0.966       .  S
O43         Ni45   1.872   1_554  S
O43         Ni50   1.938   1_554  S
O43        Ni387   1.955       .  S
O44        Ni381   1.893       .  S
Ni45         O49   1.906       .  S
Ni45         O47   2.008       .  S
Ni45        O380   1.893       .  S
Ni45        O365   1.987   1_556  S
O46        Ni387   1.917       .  S
C48          O49   1.279       .  A
C48         C248   1.484       .  S
Ni50        O368   1.924       .  S
Ni51        O364   1.864       .  S
Ni51        O382   1.917       .  S
Ni51        O379   1.955       .  S
O53         Ni59   1.868       .  S
O53          C74   1.253       .  A
O54         Ni77   1.900       .  S
O54          C63   1.281       .  A
O55         Ni59   1.892       .  S
O55         Ni77   1.890       .  S
O55         Ni71   1.945       .  S
O55         H750   0.966   1_455  S
C56          O73   1.281       .  A
C56          O65   1.285       .  A
C56         C218   1.450       .  S
O57         Ni76   1.952       .  S
O57          C63   1.288       .  A
O58         Ni76   1.970   1_655  S
O58         C732   1.278       .  A
Ni59         O64   1.870       .  S
Ni59        O734   1.875   1_455  S
C60         O730   1.278       .  A
C60         O742   1.267       .  A
C60         C291   1.526       .  S
O61        Ni749   1.911       .  S
O61          C67   1.264       .  A
O62        Ni731   1.875       .  S
O62          C67   1.266       .  A
C63         C198   1.472       .  S
O64          C66   1.265       .  A
O65         Ni76   1.942       .  S
C66          O72   1.302       .  A
C66         C188   1.488       .  S
C67         C271   1.436       .  S
H68          O69   0.967       .  S
O69         Ni77   1.893       .  S
O69         Ni71   1.860       .  S
O69         Ni76   1.895       .  S
O70         Ni71   1.933       .  S
O70         C732   1.267   1_455  A
Ni71         O75   1.920       .  S
Ni71         O73   1.879       .  S
O72         Ni77   1.999       .  S
C74          O75   1.258       .  A
C74         C208   1.481       .  S
Ni77        O733   1.911       .  S
H78         O727   0.966       .  S
O79         Ni85   1.928       .  S
O79         C100   1.275       .  A
O80        Ni103   1.906       .  S
O80          C89   1.286       .  A
O81         Ni85   1.795   1_545  S
O81        Ni103   1.888       .  S
O81         Ni97   1.877       .  S
O81         H104   0.963       .  S
C82          O99   1.280       .  A
C82          O91   1.286       .  A
C82         C178   1.478       .  S
O83        Ni102   1.933       .  S
O83          C89   1.292       .  A
O84        Ni102   1.995       .  S
O84          C86   1.289       .  A
Ni85         O88   2.022   1_565  S
Ni85         O90   1.900       .  S
C86          O96   1.287       .  A
C86         C241   1.559       .  S
O87        Ni103   1.878       .  S
O87          C93   1.278       .  A
O88          C93   1.314       .  A
C89         C301   1.477       .  S
O90          C92   1.254   1_565  A
O91        Ni102   1.940       .  S
C92          O98   1.283       .  A
C92         C168   1.508       .  S
C93         C221   1.444       .  S
H94          O95   0.967       .  S
O95        Ni103   1.908       .  S
O95         Ni97   1.890       .  S
O95        Ni102   1.867       .  S
O96         Ni97   1.982       .  S
Ni97        O101   1.950   1_545  S
Ni97         O99   1.876       .  S
O98        Ni103   2.002       .  S
C100        O101   1.279       .  A
C100        C311   1.473       .  S
O105       Ni447   1.912       .  S
O105        C126   1.268       .  A
O106       Ni129   1.923   1_546  S
O106        C115   1.269       .  A
O107       Ni111   1.897       .  S
O107       Ni129   1.898   1_545  S
O107       Ni459   1.894   1_554  S
O107        H130   0.965       .  S
C108        O125   1.284       .  A
C108        O117   1.278       .  A
C108        C158   1.456       .  S
O109       Ni464   1.915       .  S
O109        C115   1.269   1_565  A
O110       Ni464   1.960   1_545  S
O110        C112   1.273       .  A
Ni111       O114   1.888       .  S
Ni111       O441   1.912       .  S
Ni111       O452   1.950       .  S
C112        O122   1.262       .  A
C112        C191   1.512       .  S
O113       Ni129   1.926   1_545  S
O113        C119   1.276       .  A
O114        C119   1.279       .  A
C115        C251   1.482       .  S
O116       Ni447   1.950       .  S
O116        C118   1.277       .  A
O117       Ni128   1.895       .  S
C118        O124   1.300       .  A
C118        C278   1.549       .  S
C119        C181   1.484       .  S
H120        O121   0.966       .  S
O121       Ni123   1.875       .  S
O121       Ni128   1.923       .  S
O121       Ni465   1.946   1_556  S
O122       Ni459   1.919       .  S
Ni123       O127   1.858       .  S
Ni123       O125   1.949       .  S
Ni123       O458   1.919       .  S
Ni123       O443   1.894   1_556  S
O124       Ni465   2.022       .  S
C126        O127   1.253   1_554  A
C126        C261   1.431       .  S
Ni128       O445   1.915       .  S
Ni128       O446   1.960       .  S
Ni129       O460   2.022       .  S
Ni129       O457   1.946   1_554  S
O131       Ni137   1.933       .  S
O131        C152   1.278       .  A
O132       Ni155   1.916       .  S
O132        C141   1.252       .  A
O133       Ni137   1.918       .  S
O133       Ni155   1.912       .  S
O133       Ni149   1.991       .  S
O133        H156   0.966       .  S
C134        O151   1.299       .  A
C134        O143   1.283   1_455  A
C134        C171   1.510       .  S
O135       Ni154   1.898       .  S
O135        C141   1.267       .  A
O136       Ni154   1.894       .  S
O136        C138   1.263       .  A
Ni137       O140   1.977       .  S
Ni137       O142   1.900       .  S
C138        O148   1.266       .  A
C138        C321   1.469       .  S
O139       Ni155   1.916       .  S
O139        C145   1.264       .  A
O140        C145   1.276       .  A
C141        C211   1.473       .  S
O142        C816   1.278       .  A
O143       Ni826   1.933       .  S
C144        O814   1.278       .  A
C144        O822   1.279       .  A
C144        C161   1.451       .  S
C145        C231   1.513       .  S
H146        O819   0.961       .  S
O147       Ni155   1.947       .  S
O147       Ni149   1.874       .  S
O147       Ni154   1.887       .  S
O147        H818   0.961       .  S
O148       Ni149   1.937       .  S
Ni149       O153   1.914       .  S
Ni149       O823   1.983       .  S
O150       Ni155   1.947       .  S
O150        C816   1.279       .  A
O151       Ni821   1.983   1_455  S
C152        O153   1.274       .  A
C152        C201   1.479       .  S
Ni154       O815   1.933       .  S
C157        C158   1.401   1_655  A
C157        C162   1.396       .  A
C157        H163   1.082       .  S
C158        C159   1.403       .  A
C159        C160   1.389       .  A
C159        H164   1.084       .  S
C160        C161   1.396   1_455  A
C160        H165   1.084       .  S
C161        C162   1.401       .  A
C162        H838   1.084       .  S
H166        C834   1.084       .  S
C167        C172   1.417       .  A
C167        C504   1.419       .  A
C167        H173   1.083       .  S
C168        C169   1.401       .  A
C168        C503   1.419   1_545  A
C169        C506   1.406   1_545  A
C169        H174   1.083       .  S
C170        C171   1.409       .  A
C170        C505   1.406       .  A
C170        H175   1.065       .  S
C171        C172   1.407       .  A
C172        H176   1.083       .  S
C177        C178   1.403       .  A
C177        C182   1.407       .  A
C177        H183   1.083       .  S
C178        C179   1.416       .  A
C179        C180   1.400       .  A
C179        H184   1.084       .  S
C180        C181   1.397       .  A
C180        H185   1.083       .  S
C181        C182   1.416       .  A
C182        H186   1.083       .  S
C187        C188   1.415       .  A
C187        C192   1.413       .  A
C187        H193   1.084       .  S
C188        C189   1.408       .  A
C189        C190   1.412       .  A
C189        H194   1.083       .  S
C190        C191   1.414       .  A
C190        H195   1.083       .  S
C191        C192   1.407       .  A
C192        H196   1.083       .  S
C197        C202   1.396       .  A
C197        C870   1.402       .  A
C197        H203   1.084       .  S
C198        C199   1.403       .  A
C198        C869   1.402   1_455  A
C199        C200   1.404       .  A
C199        H204   1.083       .  S
C200        C873   1.407   1_455  A
C200        H205   1.083       .  S
C201        C202   1.404       .  A
C201        C872   1.407       .  A
C202        H206   1.083       .  S
C207        C208   1.409   1_665  A
C207        C548   1.393       .  A
C207        H213   1.076       .  S
C208        C881   1.396   1_455  A
C209        C880   1.396       .  A
C209        C546   1.387   1_545  A
C209        H214   1.079       .  S
C210        C211   1.396       .  A
C210        C545   1.387       .  A
C210        H215   1.078       .  S
C211        C884   1.405       .  A
C212        C543   1.393       .  A
C212        C883   1.405       .  A
C212        H216   1.083       .  S
C217        C218   1.409       .  A
C217        C222   1.400       .  A
C217        H223   1.083       .  S
C218        C219   1.393       .  A
C219        C220   1.377       .  A
C219        H224   1.084       .  S
C220        C221   1.404       .  A
C220        H225   1.082       .  S
C221        C222   1.395       .  A
C222        H226   1.083       .  S
C227        C228   1.416       .  A
C227        C232   1.413       .  A
C227        H233   1.084       .  S
C228        C229   1.410       .  A
C229        C230   1.416       .  A
C229        H234   1.083       .  S
C230        C231   1.413       .  A
C230        H235   1.082       .  S
C231        C232   1.406       .  A
C232        H236   1.083       .  S
C237        C242   1.453   1_655  A
C237        C910   1.427       .  A
C237        H243   1.082       .  S
C238        C239   1.405       .  A
C238        C909   1.427       .  A
C239        C912   1.416       .  A
C239        H244   1.058       .  S
C240        C241   1.407       .  A
C240        C911   1.416       .  A
C240        H245   1.081       .  S
C241        C242   1.431       .  A
C242        H246   1.082       .  S
C247        C248   1.407       .  A
C247        C588   1.398       .  A
C247        H253   1.083       .  S
C248        C249   1.407       .  A
C249        C250   1.396       .  A
C249        H254   1.083   1_556  S
C250        C587   1.405       .  A
C250        H255   1.081   1_556  S
C251        C252   1.406       .  A
C251        C586   1.405       .  A
C252        C583   1.398       .  A
C252        H256   1.083   1_545  S
C257        C594   1.406       .  A
C257        C934   1.377   1_565  A
C257        H263   1.047   1_565  S
C258        C259   1.395       .  A
C258        C593   1.406       .  A
C259        C932   1.388       .  A
C259        H264   1.083       .  S
C260        C261   1.407       .  A
C260        C931   1.388   1_455  A
C260        H265   1.074   1_554  S
C261        C598   1.375       .  A
C262        C929   1.377   1_445  A
C262        C597   1.375       .  A
C262        H266   1.084       .  S
C267        C268   1.413       .  A
C267        C272   1.385       .  A
C267        H273   1.083       .  S
C268        C269   1.393       .  A
C269        C270   1.384       .  A
C269        H274   1.078       .  S
C270        C271   1.403       .  A
C270        H947   1.085       .  S
C271        C272   1.389       .  A
C272        H276   1.084       .  S
H275        C942   1.085       .  S
C277        C278   1.389       .  A
C277        C954   1.405   1_455  A
C277        H283   1.068       .  S
C278        C279   1.430       .  A
C279        C952   1.455   1_455  A
C279        H284   1.082       .  S
C280        C281   1.429       .  A
C280        C951   1.455       .  A
C280        H285   1.082       .  S
C281        C282   1.414       .  A
C282        C949   1.405       .  A
C282        H286   1.078       .  S
C287        C288   1.403       .  A
C287        C628   1.402       .  A
C287        H293   1.083       .  S
C288        C625   1.419       .  A
C289        C290   1.433       .  A
C289        C624   1.419   1_545  A
C289        H294   1.082   1_545  S
C290        C291   1.416       .  A
C290        H295   1.082       .  S
C291        C292   1.412       .  A
C292        C623   1.402       .  A
C292        H296   1.079       .  S
C297        C298   1.401       .  A
C297        C302   1.399       .  A
C297        H303   1.082       .  S
C298        C299   1.402       .  A
C299        C300   1.398       .  A
C299        H304   1.083       .  S
C300        C301   1.406       .  A
C300        H305   1.083       .  S
C301        C302   1.406       .  A
C302        H306   1.083       .  S
C307        C644   1.402       .  A
C307        C984   1.392   1_545  A
C307        H313   1.074       .  S
C308        C309   1.407       .  A
C308        C643   1.402       .  A
C309        C982   1.389       .  A
C309        H314   1.082       .  S
C310        C981   1.389       .  A
C310        C647   1.401       .  A
C310        H315   1.083       .  S
C311        C312   1.396       .  A
C311        C646   1.401       .  A
C312        C979   1.392   1_565  A
C312        H316   1.079       .  S
C317        C318   1.394       .  A
C317        C322   1.398       .  A
C317        H323   1.082       .  S
C318        C319   1.420       .  A
C319        C320   1.394       .  A
C319        H324   1.084       .  S
C320        C321   1.393       .  A
C320        H325   1.083       .  S
C321        C322   1.410       .  A
C322        H326   1.071       .  S
C327        C328   1.406       .  A
C327        C332   1.392       .  A
C327        H333   1.083       .  S
C328        C329   1.402       .  A
C329        C330   1.392       .  A
C329        H334   1.083       .  S
C330        C331   1.404       .  A
C330        H335   1.083       .  S
C331        C332   1.402       .  A
C332        H336   1.084       .  S
O337       Ni343   1.931       .  S
O337        C358   1.284       .  A
O338       Ni361   1.918   1_545  S
O338        C347   1.256       .  A
O339       Ni343   1.892       .  S
O339       Ni361   1.886       .  S
O339       Ni355   2.002       .  S
O339        H362   0.963       .  S
C340        O357   1.311       .  A
C340        O349   1.273       .  A
C340        C617   1.562       .  S
O341       Ni360   1.905   1_545  S
O341        C347   1.267       .  A
O342       Ni360   1.915       .  S
O342        C344   1.272       .  A
Ni343       O346   2.009       .  S
Ni343       O348   1.846       .  S
C344        O354   1.262       .  A
C344        C664   1.459       .  S
O345       Ni361   1.898       .  S
O345        C351   1.249       .  A
O346        C351   1.281       .  A
C347        C644   1.473       .  S
O348        C350   1.263       .  A
O349       Ni360   1.915       .  S
C350        O356   1.298       .  A
C350        C654   1.480       .  S
C351        C624   1.512       .  S
H352        O353   0.959       .  S
O353       Ni361   1.914       .  S
O353       Ni355   1.836       .  S
O353       Ni360   1.903       .  S
O354       Ni355   1.901       .  S
Ni355       O359   1.927       .  S
Ni355       O357   2.047       .  S
O356       Ni361   2.000       .  S
C358        O359   1.286       .  A
C358        C634   1.468       .  S
O363        C384   1.285   1_554  A
O364        C373   1.270       .  A
O365       Ni369   1.896       .  S
O365       Ni387   1.897       .  S
O365        H388   0.961       .  S
C366        O383   1.299       .  A
C366        O375   1.255       .  A
C366        C564   1.494       .  S
O367       Ni386   1.922   1_554  S
O367        C373   1.252       .  A
O368        C370   1.284       .  A
Ni369       O372   2.014       .  S
C370        O380   1.269       .  A
C370        C604   1.457       .  S
O371       Ni387   1.981       .  S
O371        C377   1.276       .  A
O372        C377   1.287       .  A
C373        C594   1.469       .  S
O374        C376   1.275   1_545  A
O375       Ni386   1.882       .  S
C376        O382   1.284       .  A
C376        C667   1.473       .  S
C377        C574   1.569       .  S
H378        O379   0.966       .  S
O379       Ni381   1.872   1_554  S
O379       Ni386   1.938   1_554  S
Ni381       O385   1.906       .  S
Ni381       O383   2.008       .  S
C384        O385   1.279   1_545  A
C384        C584   1.484       .  S
O389       Ni395   1.868       .  S
O389        C410   1.253       .  A
O390       Ni413   1.900       .  S
O390        C399   1.281       .  A
O391       Ni395   1.891       .  S
O391       Ni413   1.890       .  S
O391       Ni407   1.945       .  S
O391       H1086   0.966   1_455  S
C392        O409   1.281       .  A
C392        O401   1.285       .  A
C392        C554   1.450       .  S
O393       Ni412   1.952       .  S
O393        C399   1.288       .  A
O394       Ni412   1.971   1_655  S
O394       C1068   1.278       .  A
Ni395      O1070   1.875   1_455  S
Ni395       O400   1.870       .  S
C396       O1066   1.278       .  A
C396       O1078   1.267       .  A
C396        C627   1.526       .  S
O397      Ni1085   1.911       .  S
O397        C403   1.264       .  A
O398      Ni1067   1.875       .  S
O398        C403   1.266       .  A
C399        C534   1.472       .  S
O400        C402   1.265       .  A
O401       Ni412   1.942       .  S
C402        O408   1.302       .  A
C402        C524   1.488       .  S
C403        C607   1.436       .  S
H404        O405   0.967       .  S
O405       Ni413   1.892       .  S
O405       Ni407   1.860       .  S
O405       Ni412   1.895       .  S
O406       Ni407   1.933       .  S
O406       C1068   1.267   1_455  A
Ni407       O411   1.920       .  S
Ni407       O409   1.879       .  S
O408       Ni413   1.999       .  S
C410        O411   1.258       .  A
C410        C544   1.481       .  S
Ni413      O1069   1.911       .  S
H414       O1063   0.966       .  S
O415       Ni421   1.928       .  S
O415        C436   1.275       .  A
O416       Ni439   1.906       .  S
O416        C425   1.286       .  A
O417       Ni421   1.795       .  S
O417       Ni439   1.887       .  S
O417       Ni433   1.877       .  S
O417        H440   0.963       .  S
C418        O435   1.280       .  A
C418        O427   1.286       .  A
C418        C514   1.478       .  S
O419       Ni438   1.933       .  S
O419        C425   1.292       .  A
O420       Ni438   1.995       .  S
O420        C422   1.289       .  A
Ni421       O424   2.022       .  S
Ni421       O426   1.900       .  S
C422        O432   1.287       .  A
C422        C577   1.559       .  S
O423       Ni439   1.878       .  S
O423        C429   1.278       .  A
O424        C429   1.314       .  A
C425        C637   1.477       .  S
O426        C428   1.254       .  A
O427       Ni438   1.940       .  S
C428        O434   1.283       .  A
C428        C504   1.508       .  S
C429        C557   1.444       .  S
H430        O431   0.967       .  S
O431       Ni439   1.908       .  S
O431       Ni433   1.890       .  S
O431       Ni438   1.867       .  S
O432       Ni433   1.982       .  S
Ni433       O437   1.950       .  S
Ni433       O435   1.876       .  S
O434       Ni439   2.002       .  S
C436        O437   1.279       .  A
C436        C647   1.473       .  S
O441        C462   1.268       .  A
O442       Ni465   1.923   1_556  S
O442        C451   1.269       .  A
O443       Ni447   1.897       .  S
O443       Ni465   1.898       .  S
O443        H466   0.965       .  S
C444        O461   1.284   1_565  A
C444        O453   1.278       .  A
C444        C494   1.456       .  S
O445        C451   1.269       .  A
O446        C448   1.273       .  A
Ni447       O450   1.888       .  S
C448        O458   1.262       .  A
C448        C527   1.512       .  S
O449       Ni465   1.926       .  S
O449        C455   1.276       .  A
O450        C455   1.279       .  A
C451        C587   1.482       .  S
O452        C454   1.277   1_545  A
O453       Ni464   1.895       .  S
C454        O460   1.300       .  A
C454        C614   1.549       .  S
C455        C517   1.484       .  S
H456        O457   0.966       .  S
O457       Ni459   1.875   1_565  S
O457       Ni464   1.923       .  S
Ni459       O463   1.858       .  S
Ni459       O461   1.949       .  S
C462        O463   1.253   1_554  A
C462        C597   1.431       .  S
O467       Ni473   1.932       .  S
O467        C488   1.278       .  A
O468       Ni491   1.916       .  S
O468        C477   1.252       .  A
O469       Ni473   1.918       .  S
O469       Ni491   1.912       .  S
O469       Ni485   1.991       .  S
O469        H492   0.966       .  S
C470        O487   1.299       .  A
C470        O479   1.283   1_455  A
C470        C507   1.510       .  S
O471       Ni490   1.898       .  S
O471        C477   1.267       .  A
O472       Ni490   1.894       .  S
O472        C474   1.263       .  A
Ni473       O476   1.976       .  S
Ni473       O478   1.900       .  S
C474        O484   1.266       .  A
C474        C657   1.469       .  S
O475       Ni491   1.916       .  S
O475        C481   1.264       .  A
O476        C481   1.276       .  A
C477        C547   1.473       .  S
O478       C1152   1.278       .  A
O479      Ni1162   1.933       .  S
C480       O1150   1.278       .  A
C480       O1158   1.279       .  A
C480        C497   1.451       .  S
C481        C567   1.513       .  S
H482       O1155   0.961       .  S
O483       Ni491   1.947       .  S
O483       Ni485   1.874       .  S
O483       Ni490   1.887       .  S
O483       H1154   0.961       .  S
O484       Ni485   1.937       .  S
Ni485       O489   1.914       .  S
Ni485      O1159   1.983       .  S
O486       Ni491   1.947       .  S
O486       C1152   1.279       .  A
O487      Ni1157   1.983   1_455  S
C488        O489   1.274       .  A
C488        C537   1.479       .  S
Ni490      O1151   1.933       .  S
C493        C494   1.401   1_655  A
C493        C498   1.396       .  A
C493        H499   1.082       .  S
C494        C495   1.403       .  A
C495        C496   1.389       .  A
C495        H500   1.084       .  S
C496        C497   1.396   1_455  A
C496        H501   1.084       .  S
C497        C498   1.401       .  A
C498       H1174   1.084       .  S
H502       C1170   1.084       .  S
C503        C508   1.417       .  A
C503        H509   1.083       .  S
C504        C505   1.401       .  A
C505        H510   1.083       .  S
C506        C507   1.409       .  A
C506        H511   1.065   1_565  S
C507        C508   1.407       .  A
C508        H512   1.083       .  S
C513        C514   1.403       .  A
C513        C518   1.407       .  A
C513        H519   1.083       .  S
C514        C515   1.416       .  A
C515        C516   1.400       .  A
C515        H520   1.084       .  S
C516        C517   1.397       .  A
C516        H521   1.083       .  S
C517        C518   1.416       .  A
C518        H522   1.083       .  S
C523        C524   1.415       .  A
C523        C528   1.413       .  A
C523        H529   1.084       .  S
C524        C525   1.408       .  A
C525        C526   1.412       .  A
C525        H530   1.083       .  S
C526        C527   1.414       .  A
C526        H531   1.083       .  S
C527        C528   1.407       .  A
C528        H532   1.083       .  S
C533       C1206   1.402       .  A
C533        C538   1.396       .  A
C533        H539   1.084       .  S
C534       C1205   1.402   1_455  A
C534        C535   1.403       .  A
C535        C536   1.404       .  A
C535        H540   1.083       .  S
C536       C1209   1.407   1_455  A
C536        H541   1.083       .  S
C537       C1208   1.407       .  A
C537        C538   1.404       .  A
C538        H542   1.083       .  S
C543        C544   1.409   1_655  A
C543        H549   1.076       .  S
C544       C1217   1.396   1_455  A
C545       C1216   1.396       .  A
C545        H550   1.079       .  S
C546        C547   1.396       .  A
C546        H551   1.078       .  S
C547       C1220   1.405       .  A
C548       C1219   1.405       .  A
C548        H552   1.083       .  S
C553        C554   1.409       .  A
C553        C558   1.400       .  A
C553        H559   1.083       .  S
C554        C555   1.393       .  A
C555        C556   1.377       .  A
C555        H560   1.084       .  S
C556        C557   1.404       .  A
C556        H561   1.082       .  S
C557        C558   1.395       .  A
C558        H562   1.083       .  S
C563        C564   1.416       .  A
C563        C568   1.413       .  A
C563        H569   1.084       .  S
C564        C565   1.410       .  A
C565        C566   1.416       .  A
C565        H570   1.083       .  S
C566        C567   1.413       .  A
C566        H571   1.081       .  S
C567        C568   1.406       .  A
C568        H572   1.083       .  S
C573       C1246   1.427       .  A
C573        C578   1.453   1_655  A
C573        H579   1.082       .  S
C574       C1245   1.427       .  A
C574        C575   1.405       .  A
C575       C1248   1.416       .  A
C575        H580   1.058       .  S
C576       C1247   1.416       .  A
C576        C577   1.407       .  A
C576        H581   1.081       .  S
C577        C578   1.431       .  A
C578        H582   1.082       .  S
C583        C584   1.407       .  A
C583        H589   1.083   1_545  S
C584        C585   1.407       .  A
C585        C586   1.396       .  A
C585        H590   1.083   1_556  S
C586        H591   1.081   1_556  S
C587        C588   1.406       .  A
C588        H592   1.083       .  S
C593       C1270   1.377       .  A
C593        H599   1.047       .  S
C594        C595   1.395       .  A
C595       C1268   1.388       .  A
C595        H600   1.083       .  S
C596       C1267   1.388   1_455  A
C596        C597   1.407   1_565  A
C596        H601   1.074   1_554  S
C598       C1265   1.377   1_455  A
C598        H602   1.084       .  S
C603        C604   1.413       .  A
C603        C608   1.385       .  A
C603        H609   1.083       .  S
C604        C605   1.393       .  A
C605        C606   1.384       .  A
C605        H610   1.078       .  S
C606        C607   1.403       .  A
C606       H1283   1.085       .  S
C607        C608   1.389       .  A
C608        H612   1.084       .  S
H611       C1278   1.085       .  S
C613        C614   1.389       .  A
C613       C1290   1.405   1_455  A
C613        H619   1.068       .  S
C614        C615   1.430       .  A
C615       C1288   1.455   1_455  A
C615        H620   1.082       .  S
C616       C1287   1.455       .  A
C616        C617   1.429       .  A
C616        H621   1.082       .  S
C617        C618   1.414       .  A
C618       C1285   1.405       .  A
C618        H622   1.078       .  S
C623        C624   1.403   1_545  A
C623        H629   1.083       .  S
C625        C626   1.433       .  A
C625        H630   1.082       .  S
C626        C627   1.416       .  A
C626        H631   1.082       .  S
C627        C628   1.412       .  A
C628        H632   1.079       .  S
C633        C634   1.401       .  A
C633        C638   1.399       .  A
C633        H639   1.082       .  S
C634        C635   1.402       .  A
C635        C636   1.398       .  A
C635        H640   1.083       .  S
C636        C637   1.406       .  A
C636        H641   1.083       .  S
C637        C638   1.406       .  A
C638        H642   1.083       .  S
C643       C1320   1.392       .  A
C643        H649   1.074       .  S
C644        C645   1.407   1_545  A
C645       C1318   1.389       .  A
C645        H650   1.082       .  S
C646       C1317   1.389       .  A
C646        H651   1.083       .  S
C647        C648   1.396       .  A
C648       C1315   1.392       .  A
C648        H652   1.079       .  S
C653        C654   1.394       .  A
C653        C658   1.399       .  A
C653        H659   1.082       .  S
C654        C655   1.420       .  A
C655        C656   1.394       .  A
C655        H660   1.084       .  S
C656        C657   1.393       .  A
C656        H661   1.083       .  S
C657        C658   1.410       .  A
C658        H662   1.071       .  S
C663        C664   1.406       .  A
C663        C668   1.392       .  A
C663        H669   1.083       .  S
C664        C665   1.402       .  A
C665        C666   1.392       .  A
C665        H670   1.083       .  S
C666        C667   1.404       .  A
C666        H671   1.083       .  S
C667        C668   1.402       .  A
C668        H672   1.084       .  S
O673       Ni679   1.931       .  S
O673        C694   1.284       .  A
O674       Ni697   1.918       .  S
O674        C683   1.256       .  A
O675       Ni679   1.892       .  S
O675       Ni697   1.886       .  S
O675       Ni691   2.002       .  S
O675        H698   0.963       .  S
C676        O693   1.311       .  A
C676        O685   1.273       .  A
C676        C953   1.562       .  S
O677       Ni696   1.905       .  S
O677        C683   1.267       .  A
O678       Ni696   1.915       .  S
O678        C680   1.272       .  A
Ni679       O682   2.009       .  S
Ni679       O684   1.846       .  S
C680        O690   1.262       .  A
C680       C1000   1.459       .  S
O681       Ni697   1.898       .  S
O681        C687   1.249       .  A
O682        C687   1.281       .  A
C683        C980   1.473       .  S
O684        C686   1.263       .  A
O685       Ni696   1.915       .  S
C686        O692   1.298       .  A
C686        C990   1.480       .  S
C687        C960   1.512       .  S
H688        O689   0.955       .  S
O689       Ni697   1.915       .  S
O689       Ni691   1.836       .  S
O689       Ni696   1.904       .  S
O690       Ni691   1.901       .  S
Ni691       O695   1.927       .  S
Ni691       O693   2.047       .  S
O692       Ni697   2.000       .  S
C694        O695   1.286       .  A
C694        C970   1.468       .  S
O699      Ni1041   1.944       .  S
O699        C720   1.285   1_554  A
O700      Ni1059   1.864       .  S
O700        C709   1.270       .  A
O701       Ni705   1.896       .  S
O701       Ni723   1.897   1_545  S
O701      Ni1053   1.987   1_544  S
O701        H724   0.961       .  S
C702        O719   1.299       .  A
C702        O711   1.255       .  A
C702        C900   1.494       .  S
O703       Ni722   1.922   1_554  S
O703        C709   1.252       .  A
O704      Ni1058   1.924       .  S
O704        C706   1.284       .  A
Ni705      O1035   1.944       .  S
Ni705       O708   2.014       .  S
Ni705      O1046   1.898       .  S
C706        O716   1.269       .  A
C706        C940   1.457   1_565  S
O707       Ni723   1.981       .  S
O707        C713   1.277   1_565  A
O708        C713   1.287       .  A
C709        C930   1.469       .  S
O710      Ni1041   1.898       .  S
O710        C712   1.275       .  A
O711       Ni722   1.882       .  S
C712        O718   1.284       .  A
C712       C1003   1.473       .  S
C713        C910   1.569       .  S
H714        O715   0.966       .  S
O715      Ni1059   1.955       .  S
O715       Ni717   1.872   1_554  S
O715       Ni722   1.938   1_554  S
O716      Ni1053   1.893       .  S
Ni717      O1052   1.893       .  S
Ni717       O721   1.906       .  S
Ni717       O719   2.008       .  S
Ni717      O1037   1.987   1_556  S
O718      Ni1059   1.917       .  S
C720        O721   1.279       .  A
C720        C920   1.484       .  S
Ni722      O1040   1.924       .  S
Ni723      O1036   1.864       .  S
Ni723      O1054   1.917       .  S
Ni723      O1051   1.955       .  S
O725       Ni731   1.868       .  S
O725        C746   1.253       .  A
O726       Ni749   1.900       .  S
O726        C735   1.281       .  A
O727       Ni731   1.892       .  S
O727       Ni749   1.890       .  S
O727       Ni743   1.945       .  S
C728        O745   1.281       .  A
C728        O737   1.285       .  A
C728        C890   1.450       .  S
O729       Ni748   1.952       .  S
O729        C735   1.288       .  A
O730       Ni748   1.970       .  S
Ni731       O736   1.870       .  S
C732        C963   1.526       .  S
O733        C739   1.264       .  A
O734        C739   1.266   1_655  A
C735        C870   1.472       .  S
O736        C738   1.265       .  A
O737       Ni748   1.942       .  S
C738        O744   1.302       .  A
C738        C860   1.488       .  S
C739        C943   1.436   1_455  S
H740        O741   0.967       .  S
O741       Ni749   1.893       .  S
O741       Ni743   1.860       .  S
O741       Ni748   1.895       .  S
O742       Ni743   1.933       .  S
Ni743       O747   1.920       .  S
Ni743       O745   1.879       .  S
O744       Ni749   1.999       .  S
C746        O747   1.258       .  A
C746        C880   1.481       .  S
O751       Ni757   1.928       .  S
O751        C772   1.275       .  A
O752       Ni775   1.906       .  S
O752        C761   1.286       .  A
O753       Ni757   1.795   1_545  S
O753       Ni775   1.888       .  S
O753       Ni769   1.877       .  S
O753        H776   0.963       .  S
C754        O771   1.280       .  A
C754        O763   1.286       .  A
C754        C850   1.478       .  S
O755       Ni774   1.933       .  S
O755        C761   1.292       .  A
O756       Ni774   1.995       .  S
O756        C758   1.289       .  A
Ni757       O760   2.022   1_565  S
Ni757       O762   1.900       .  S
C758        O768   1.287       .  A
C758        C913   1.559       .  S
O759       Ni775   1.878       .  S
O759        C765   1.278       .  A
O760        C765   1.314       .  A
C761        C973   1.477       .  S
O762        C764   1.254   1_565  A
O763       Ni774   1.940       .  S
C764        O770   1.283       .  A
C764        C840   1.508       .  S
C765        C893   1.444       .  S
H766        O767   0.967       .  S
O767       Ni775   1.908       .  S
O767       Ni769   1.890       .  S
O767       Ni774   1.867       .  S
O768       Ni769   1.982       .  S
Ni769       O773   1.950   1_545  S
Ni769       O771   1.876       .  S
O770       Ni775   2.002       .  S
C772        O773   1.279       .  A
C772        C983   1.473       .  S
O777      Ni1119   1.912       .  S
O777        C798   1.268       .  A
O778       Ni801   1.923   1_546  S
O778        C787   1.269       .  A
O779       Ni783   1.897       .  S
O779       Ni801   1.898   1_545  S
O779      Ni1131   1.894   1_554  S
O779        H802   0.965       .  S
C780        O797   1.284       .  A
C780        O789   1.278       .  A
C780        C830   1.456       .  S
O781      Ni1136   1.915       .  S
O781        C787   1.269   1_565  A
O782      Ni1136   1.960   1_545  S
O782        C784   1.273       .  A
Ni783      O1113   1.912       .  S
Ni783       O786   1.888       .  S
Ni783      O1124   1.950       .  S
C784        O794   1.262       .  A
C784        C863   1.512       .  S
O785       Ni801   1.926   1_545  S
O785        C791   1.276       .  A
O786        C791   1.279       .  A
C787        C923   1.482       .  S
O788      Ni1119   1.950       .  S
O788        C790   1.277       .  A
O789       Ni800   1.895       .  S
C790        O796   1.300       .  A
C790        C950   1.549       .  S
C791        C853   1.484       .  S
H792        O793   0.966       .  S
O793      Ni1137   1.946   1_556  S
O793       Ni795   1.875       .  S
O793       Ni800   1.923       .  S
O794      Ni1131   1.919       .  S
Ni795      O1130   1.919       .  S
Ni795       O799   1.858       .  S
Ni795       O797   1.949       .  S
Ni795      O1115   1.894   1_556  S
O796      Ni1137   2.022       .  S
C798        O799   1.253   1_554  A
C798        C933   1.431       .  S
Ni800      O1117   1.915       .  S
Ni800      O1118   1.960       .  S
Ni801      O1132   2.022       .  S
Ni801      O1129   1.946   1_554  S
O803       Ni809   1.933       .  S
O803        C824   1.278       .  A
O804       Ni827   1.916       .  S
O804        C813   1.252       .  A
O805       Ni809   1.918       .  S
O805       Ni827   1.912       .  S
O805       Ni821   1.991       .  S
O805        H828   0.966       .  S
C806        O823   1.299       .  A
C806        O815   1.283       .  A
C806        C843   1.510       .  S
O807       Ni826   1.898       .  S
O807        C813   1.267       .  A
O808       Ni826   1.894       .  S
O808        C810   1.263       .  A
Ni809       O812   1.977       .  S
Ni809       O814   1.900       .  S
C810        O820   1.266       .  A
C810        C993   1.469       .  S
O811       Ni827   1.916       .  S
O811        C817   1.264       .  A
O812        C817   1.276       .  A
C813        C883   1.473       .  S
C816        C833   1.451       .  S
C817        C903   1.513       .  S
O819       Ni827   1.947       .  S
O819       Ni821   1.874       .  S
O819       Ni826   1.887       .  S
O820       Ni821   1.937       .  S
Ni821       O825   1.914       .  S
O822       Ni827   1.947       .  S
C824        O825   1.274       .  A
C824        C873   1.479       .  S
C829        C830   1.401       .  A
C829        C834   1.396       .  A
C829        H835   1.082       .  S
C830        C831   1.403       .  A
C831        C832   1.389       .  A
C831        H836   1.084       .  S
C832        C833   1.396       .  A
C832        H837   1.084       .  S
C833        C834   1.401       .  A
C839       C1176   1.419       .  A
C839        C844   1.417       .  A
C839        H845   1.083       .  S
C840       C1175   1.419   1_545  A
C840        C841   1.401       .  A
C841       C1178   1.406   1_545  A
C841        H846   1.083       .  S
C842       C1177   1.406       .  A
C842        C843   1.409       .  A
C842        H847   1.065       .  S
C843        C844   1.407       .  A
C844        H848   1.083       .  S
C849        C850   1.403       .  A
C849        C854   1.407       .  A
C849        H855   1.083       .  S
C850        C851   1.416       .  A
C851        C852   1.400       .  A
C851        H856   1.084       .  S
C852        C853   1.397       .  A
C852        H857   1.083       .  S
C853        C854   1.416       .  A
C854        H858   1.083       .  S
C859        C860   1.415       .  A
C859        C864   1.413       .  A
C859        H865   1.084       .  S
C860        C861   1.408       .  A
C861        C862   1.412       .  A
C861        H866   1.083       .  S
C862        C863   1.414       .  A
C862        H867   1.083       .  S
C863        C864   1.407       .  A
C864        H868   1.083       .  S
C869        C874   1.396       .  A
C869        H875   1.084       .  S
C870        C871   1.403       .  A
C871        C872   1.404       .  A
C871        H876   1.083       .  S
C872        H877   1.083       .  S
C873        C874   1.404       .  A
C874        H878   1.083       .  S
C879        C880   1.409   1_565  A
C879       C1220   1.393       .  A
C879        H885   1.076       .  S
C881       C1218   1.387   1_545  A
C881        H886   1.079   1_655  S
C882       C1217   1.387       .  A
C882        C883   1.396       .  A
C882        H887   1.078       .  S
C884       C1215   1.393       .  A
C884        H888   1.083       .  S
C889        C890   1.409       .  A
C889        C894   1.400       .  A
C889        H895   1.083       .  S
C890        C891   1.393       .  A
C891        C892   1.377       .  A
C891        H896   1.084       .  S
C892        C893   1.404       .  A
C892        H897   1.082       .  S
C893        C894   1.395       .  A
C894        H898   1.083       .  S
C899        C900   1.416       .  A
C899        C904   1.413       .  A
C899        H905   1.084       .  S
C900        C901   1.410       .  A
C901        C902   1.416       .  A
C901        H906   1.083       .  S
C902        C903   1.413       .  A
C902        H907   1.082       .  S
C903        C904   1.406       .  A
C904        H908   1.083       .  S
C909        C914   1.453       .  A
C909        H915   1.082       .  S
C910        C911   1.405   1_655  A
C911        H916   1.058       .  S
C912        C913   1.407       .  A
C912        H917   1.081       .  S
C913        C914   1.431       .  A
C914        H918   1.082       .  S
C919        C920   1.407       .  A
C919       C1260   1.398       .  A
C919        H925   1.083       .  S
C920        C921   1.407       .  A
C921        C922   1.396       .  A
C921        H926   1.083   1_556  S
C922       C1259   1.405       .  A
C922        H927   1.081   1_556  S
C923       C1258   1.405       .  A
C923        C924   1.406       .  A
C924       C1255   1.398       .  A
C924        H928   1.083   1_545  S
C929       C1266   1.406       .  A
C929        H935   1.047   1_565  S
C930       C1265   1.406       .  A
C930        C931   1.395       .  A
C931        H936   1.083       .  S
C932        C933   1.407       .  A
C932        H937   1.074   1_554  S
C933       C1270   1.375       .  A
C934       C1269   1.375       .  A
C934        H938   1.084       .  S
C939        C940   1.413       .  A
C939        C944   1.385       .  A
C939        H945   1.083       .  S
C940        C941   1.393       .  A
C941        C942   1.384   1_655  A
C941        H946   1.078       .  S
C942        C943   1.403   1_455  A
C943        C944   1.389       .  A
C944        H948   1.084       .  S
C949        C950   1.389       .  A
C949        H955   1.068       .  S
C950        C951   1.430       .  A
C951        H956   1.082       .  S
C952        C953   1.429       .  A
C952        H957   1.082       .  S
C953        C954   1.414       .  A
C954        H958   1.078       .  S
C959        C960   1.403       .  A
C959       C1300   1.402       .  A
C959        H965   1.083       .  S
C960       C1297   1.419       .  A
C961       C1296   1.419   1_545  A
C961        C962   1.433       .  A
C961        H966   1.082   1_545  S
C962        C963   1.416       .  A
C962        H967   1.082       .  S
C963        C964   1.412       .  A
C964       C1295   1.402       .  A
C964        H968   1.079   1_655  S
C969        C970   1.401       .  A
C969        C974   1.399       .  A
C969        H975   1.082       .  S
C970        C971   1.402       .  A
C971        C972   1.398       .  A
C971        H976   1.083       .  S
C972        C973   1.406       .  A
C972        H977   1.083       .  S
C973        C974   1.406       .  A
C974        H978   1.083       .  S
C979       C1316   1.402   1_455  A
C979        H985   1.074   1_455  S
C980       C1315   1.402   1_655  A
C980        C981   1.407   1_655  A
C981        H986   1.082   1_455  S
C982       C1319   1.401       .  A
C982        H987   1.083       .  S
C983       C1318   1.401       .  A
C983        C984   1.396       .  A
C984        H988   1.079       .  S
C989        C990   1.394       .  A
C989        C994   1.398       .  A
C989        H995   1.082       .  S
C990        C991   1.420       .  A
C991        C992   1.394       .  A
C991        H996   1.084       .  S
C992        C993   1.393       .  A
C992        H997   1.083       .  S
C993        C994   1.410       .  A
C994        H998   1.071   1_655  S
C999       C1000   1.406       .  A
C999       C1004   1.392       .  A
C999       H1005   1.083       .  S
C1000      C1001   1.402       .  A
C1001      C1002   1.392       .  A
C1001      H1006   1.083       .  S
C1002      C1003   1.404       .  A
C1002      H1007   1.083       .  S
C1003      C1004   1.402       .  A
C1004      H1008   1.084       .  S
O1009     Ni1015   1.931       .  S
O1009      C1030   1.284       .  A
O1010     Ni1033   1.918   1_545  S
O1010      C1019   1.256       .  A
O1011     Ni1015   1.892       .  S
O1011     Ni1033   1.886       .  S
O1011     Ni1027   2.002       .  S
O1011      H1034   0.963       .  S
C1012      O1029   1.311       .  A
C1012      O1021   1.273       .  A
C1012      C1289   1.562       .  S
O1013     Ni1032   1.905   1_545  S
O1013      C1019   1.267       .  A
O1014     Ni1032   1.915       .  S
O1014      C1016   1.272       .  A
Ni1015     O1018   2.009       .  S
Ni1015     O1020   1.846       .  S
C1016      O1026   1.262       .  A
C1016      C1336   1.459       .  S
O1017     Ni1033   1.898       .  S
O1017      C1023   1.249       .  A
O1018      C1023   1.281       .  A
C1019      C1316   1.473       .  S
O1020      C1022   1.263       .  A
O1021     Ni1032   1.915       .  S
C1022      O1028   1.298       .  A
C1022      C1326   1.480       .  S
C1023      C1296   1.512       .  S
H1024      O1025   0.959       .  S
O1025     Ni1033   1.914       .  S
O1025     Ni1027   1.836       .  S
O1025     Ni1032   1.903       .  S
O1026     Ni1027   1.901       .  S
Ni1027     O1031   1.927       .  S
Ni1027     O1029   2.047       .  S
O1028     Ni1033   2.000       .  S
C1030      O1031   1.286       .  A
C1030      C1306   1.468       .  S
O1035      C1056   1.285   1_554  A
O1036      C1045   1.270       .  A
O1037     Ni1041   1.896       .  S
O1037     Ni1059   1.897       .  S
O1037      H1060   0.961       .  S
C1038      O1055   1.299       .  A
C1038      O1047   1.255       .  A
C1038      C1236   1.494       .  S
O1039     Ni1058   1.922   1_554  S
O1039      C1045   1.252       .  A
O1040      C1042   1.284       .  A
Ni1041     O1044   2.014       .  S
C1042      O1052   1.269       .  A
C1042      C1276   1.457       .  S
O1043     Ni1059   1.981       .  S
O1043      C1049   1.276       .  A
O1044      C1049   1.287       .  A
C1045      C1266   1.469       .  S
O1046      C1048   1.275   1_545  A
O1047     Ni1058   1.882       .  S
C1048      O1054   1.284       .  A
C1048      C1339   1.473       .  S
C1049      C1246   1.569       .  S
H1050      O1051   0.966       .  S
O1051     Ni1053   1.872   1_554  S
O1051     Ni1058   1.938   1_554  S
Ni1053     O1057   1.906       .  S
Ni1053     O1055   2.008       .  S
C1056      O1057   1.279   1_545  A
C1056      C1256   1.484       .  S
O1061     Ni1067   1.868       .  S
O1061      C1082   1.253       .  A
O1062     Ni1085   1.900       .  S
O1062      C1071   1.281       .  A
O1063     Ni1067   1.891       .  S
O1063     Ni1085   1.890       .  S
O1063     Ni1079   1.945       .  S
C1064      O1081   1.281       .  A
C1064      O1073   1.285       .  A
C1064      C1226   1.450       .  S
O1065     Ni1084   1.952       .  S
O1065      C1071   1.288       .  A
O1066     Ni1084   1.971       .  S
Ni1067     O1072   1.870       .  S
C1068      C1299   1.526       .  S
O1069      C1075   1.264       .  A
O1070      C1075   1.266   1_655  A
C1071      C1206   1.472       .  S
O1072      C1074   1.265       .  A
O1073     Ni1084   1.942       .  S
C1074      O1080   1.302       .  A
C1074      C1196   1.488       .  S
C1075      C1279   1.436   1_455  S
H1076      O1077   0.967       .  S
O1077     Ni1085   1.892       .  S
O1077     Ni1079   1.860       .  S
O1077     Ni1084   1.895       .  S
O1078     Ni1079   1.933       .  S
Ni1079     O1083   1.920       .  S
Ni1079     O1081   1.879       .  S
O1080     Ni1085   1.999       .  S
C1082      O1083   1.258       .  A
C1082      C1216   1.481       .  S
O1087     Ni1093   1.928       .  S
O1087      C1108   1.275       .  A
O1088     Ni1111   1.906       .  S
O1088      C1097   1.286       .  A
O1089     Ni1093   1.795       .  S
O1089     Ni1111   1.887       .  S
O1089     Ni1105   1.877       .  S
O1089      H1112   0.963       .  S
C1090      O1107   1.280       .  A
C1090      O1099   1.286       .  A
C1090      C1186   1.478       .  S
O1091     Ni1110   1.933       .  S
O1091      C1097   1.292       .  A
O1092     Ni1110   1.995       .  S
O1092      C1094   1.289       .  A
Ni1093     O1096   2.022       .  S
Ni1093     O1098   1.900       .  S
C1094      O1104   1.287       .  A
C1094      C1249   1.559       .  S
O1095     Ni1111   1.878       .  S
O1095      C1101   1.278       .  A
O1096      C1101   1.314       .  A
C1097      C1309   1.477       .  S
O1098      C1100   1.254       .  A
O1099     Ni1110   1.940       .  S
C1100      O1106   1.283       .  A
C1100      C1176   1.508       .  S
C1101      C1229   1.444       .  S
H1102      O1103   0.967       .  S
O1103     Ni1111   1.908       .  S
O1103     Ni1105   1.890       .  S
O1103     Ni1110   1.867       .  S
O1104     Ni1105   1.982       .  S
Ni1105     O1109   1.950       .  S
Ni1105     O1107   1.876       .  S
O1106     Ni1111   2.002       .  S
C1108      O1109   1.279       .  A
C1108      C1319   1.473       .  S
O1113      C1134   1.268       .  A
O1114     Ni1137   1.923   1_556  S
O1114      C1123   1.269       .  A
O1115     Ni1119   1.897       .  S
O1115     Ni1137   1.898       .  S
O1115      H1138   0.965       .  S
C1116      O1133   1.284   1_565  A
C1116      O1125   1.278       .  A
C1116      C1166   1.456       .  S
O1117      C1123   1.269       .  A
O1118      C1120   1.273       .  A
Ni1119     O1122   1.888       .  S
C1120      O1130   1.262       .  A
C1120      C1199   1.512       .  S
O1121     Ni1137   1.926       .  S
O1121      C1127   1.276       .  A
O1122      C1127   1.279       .  A
C1123      C1259   1.482       .  S
O1124      C1126   1.277   1_545  A
O1125     Ni1136   1.895       .  S
C1126      O1132   1.300       .  A
C1126      C1286   1.549       .  S
C1127      C1189   1.484       .  S
H1128      O1129   0.966       .  S
O1129     Ni1131   1.875   1_565  S
O1129     Ni1136   1.923       .  S
Ni1131     O1135   1.858       .  S
Ni1131     O1133   1.949       .  S
C1134      O1135   1.253   1_554  A
C1134      C1269   1.431       .  S
O1139     Ni1145   1.932       .  S
O1139      C1160   1.278       .  A
O1140     Ni1163   1.916       .  S
O1140      C1149   1.252       .  A
O1141     Ni1145   1.918       .  S
O1141     Ni1163   1.912       .  S
O1141     Ni1157   1.991       .  S
O1141      H1164   0.966       .  S
C1142      O1159   1.299       .  A
C1142      O1151   1.283       .  A
C1142      C1179   1.510       .  S
O1143     Ni1162   1.898       .  S
O1143      C1149   1.267       .  A
O1144     Ni1162   1.894       .  S
O1144      C1146   1.263       .  A
Ni1145     O1148   1.976       .  S
Ni1145     O1150   1.900       .  S
C1146      O1156   1.266       .  A
C1146      C1329   1.469       .  S
O1147     Ni1163   1.916       .  S
O1147      C1153   1.264       .  A
O1148      C1153   1.276       .  A
C1149      C1219   1.473       .  S
C1152      C1169   1.451       .  S
C1153      C1239   1.513       .  S
O1155     Ni1163   1.947       .  S
O1155     Ni1157   1.874       .  S
O1155     Ni1162   1.887       .  S
O1156     Ni1157   1.937       .  S
Ni1157     O1161   1.914       .  S
O1158     Ni1163   1.947       .  S
C1160      O1161   1.274       .  A
C1160      C1209   1.479       .  S
C1165      C1166   1.401       .  A
C1165      C1170   1.396       .  A
C1165      H1171   1.082       .  S
C1166      C1167   1.403       .  A
C1167      C1168   1.389       .  A
C1167      H1172   1.084       .  S
C1168      C1169   1.396       .  A
C1168      H1173   1.084       .  S
C1169      C1170   1.401       .  A
C1175      C1180   1.417       .  A
C1175      H1181   1.083       .  S
C1176      C1177   1.401       .  A
C1177      H1182   1.083       .  S
C1178      C1179   1.409       .  A
C1178      H1183   1.065   1_565  S
C1179      C1180   1.407       .  A
C1180      H1184   1.083       .  S
C1185      C1186   1.403       .  A
C1185      C1190   1.407       .  A
C1185      H1191   1.083       .  S
C1186      C1187   1.416       .  A
C1187      C1188   1.400       .  A
C1187      H1192   1.084       .  S
C1188      C1189   1.397       .  A
C1188      H1193   1.083       .  S
C1189      C1190   1.416       .  A
C1190      H1194   1.083       .  S
C1195      C1196   1.415       .  A
C1195      C1200   1.413       .  A
C1195      H1201   1.084       .  S
C1196      C1197   1.408       .  A
C1197      C1198   1.412       .  A
C1197      H1202   1.083       .  S
C1198      C1199   1.414       .  A
C1198      H1203   1.083       .  S
C1199      C1200   1.407       .  A
C1200      H1204   1.083       .  S
C1205      C1210   1.396       .  A
C1205      H1211   1.084       .  S
C1206      C1207   1.403       .  A
C1207      C1208   1.404       .  A
C1207      H1212   1.083       .  S
C1208      H1213   1.083       .  S
C1209      C1210   1.404       .  A
C1210      H1214   1.083       .  S
C1215      C1216   1.409       .  A
C1215      H1221   1.076       .  S
C1217      H1222   1.079   1_655  S
C1218      C1219   1.396       .  A
C1218      H1223   1.078       .  S
C1220      H1224   1.083       .  S
C1225      C1226   1.409       .  A
C1225      C1230   1.400       .  A
C1225      H1231   1.083       .  S
C1226      C1227   1.393       .  A
C1227      C1228   1.377       .  A
C1227      H1232   1.084       .  S
C1228      C1229   1.404       .  A
C1228      H1233   1.082       .  S
C1229      C1230   1.395       .  A
C1230      H1234   1.083       .  S
C1235      C1236   1.416       .  A
C1235      C1240   1.413       .  A
C1235      H1241   1.084       .  S
C1236      C1237   1.410       .  A
C1237      C1238   1.416       .  A
C1237      H1242   1.083       .  S
C1238      C1239   1.413       .  A
C1238      H1243   1.081       .  S
C1239      C1240   1.406       .  A
C1240      H1244   1.083       .  S
C1245      C1250   1.453       .  A
C1245      H1251   1.082       .  S
C1246      C1247   1.405   1_655  A
C1247      H1252   1.058       .  S
C1248      C1249   1.407       .  A
C1248      H1253   1.081       .  S
C1249      C1250   1.431       .  A
C1250      H1254   1.082       .  S
C1255      C1256   1.407       .  A
C1255      H1261   1.083   1_545  S
C1256      C1257   1.407       .  A
C1257      C1258   1.396       .  A
C1257      H1262   1.083   1_556  S
C1258      H1263   1.081   1_556  S
C1259      C1260   1.406       .  A
C1260      H1264   1.083       .  S
C1265      H1271   1.047       .  S
C1266      C1267   1.395       .  A
C1267      H1272   1.083       .  S
C1268      C1269   1.407   1_565  A
C1268      H1273   1.074   1_554  S
C1270      H1274   1.084       .  S
C1275      C1276   1.413       .  A
C1275      C1280   1.385       .  A
C1275      H1281   1.083       .  S
C1276      C1277   1.393       .  A
C1277      C1278   1.384   1_655  A
C1277      H1282   1.078       .  S
C1278      C1279   1.403   1_455  A
C1279      C1280   1.389       .  A
C1280      H1284   1.084       .  S
C1285      C1286   1.389       .  A
C1285      H1291   1.068       .  S
C1286      C1287   1.430       .  A
C1287      H1292   1.082       .  S
C1288      C1289   1.429       .  A
C1288      H1293   1.082       .  S
C1289      C1290   1.414       .  A
C1290      H1294   1.078       .  S
C1295      C1296   1.403   1_545  A
C1295      H1301   1.083       .  S
C1297      C1298   1.433       .  A
C1297      H1302   1.082       .  S
C1298      C1299   1.416       .  A
C1298      H1303   1.082       .  S
C1299      C1300   1.412       .  A
C1300      H1304   1.079   1_655  S
C1305      C1306   1.401       .  A
C1305      C1310   1.399       .  A
C1305      H1311   1.082       .  S
C1306      C1307   1.402       .  A
C1307      C1308   1.398       .  A
C1307      H1312   1.083       .  S
C1308      C1309   1.406       .  A
C1308      H1313   1.083       .  S
C1309      C1310   1.406       .  A
C1310      H1314   1.083       .  S
C1315      H1321   1.074   1_455  S
C1316      C1317   1.407   1_645  A
C1317      H1322   1.082   1_455  S
C1318      H1323   1.083       .  S
C1319      C1320   1.396       .  A
C1320      H1324   1.079       .  S
C1325      C1326   1.394       .  A
C1325      C1330   1.399       .  A
C1325      H1331   1.082       .  S
C1326      C1327   1.420       .  A
C1327      C1328   1.394       .  A
C1327      H1332   1.084       .  S
C1328      C1329   1.393       .  A
C1328      H1333   1.083       .  S
C1329      C1330   1.410       .  A
C1330      H1334   1.071   1_655  S
C1335      C1336   1.406       .  A
C1335      C1340   1.392       .  A
C1335      H1341   1.083       .  S
C1336      C1337   1.402       .  A
C1337      C1338   1.392       .  A
C1337      H1342   1.083       .  S
C1338      C1339   1.404       .  A
C1338      H1343   1.083       .  S
C1339      C1340   1.402       .  A
C1340      H1344   1.084       .  S
