geometry optimzed in LAMMPS
_audit_creation_date              2020-11-30 
_audit_creation_method            'lammps2cif' 
_symmetry_space_group_name_H-M    'P1' 
_symmetry_Int_Tables_number       1 
_symmetry_cell_setting            triclinic 
loop_ 
_symmetry_equiv_pos_as_xyz 
  x,y,z 
_cell_length_a                    43.32997817 
_cell_length_b                    44.004716008227376 
_cell_length_c                    38.46866772981687 
_cell_angle_alpha                 89.77800532794606 
_cell_angle_beta                  89.92976527121647 
_cell_angle_gamma                 89.93425707794553 
loop_ 
_atom_site_label 
_atom_site_type_symbol 
_atom_site_fract_x 
_atom_site_fract_y 
_atom_site_fract_z 
_atom_site_charge 
O1          O  0.63950600  0.38781655  0.65665185    -0.56900
C2          C  0.68295890  0.41790436  0.57308163     0.75700
O3          O  0.64553515  0.33068203  0.56178378    -0.58000
C4          C  0.61746246  0.37092794  0.66614085     0.75700
C5          C  0.58903224  0.42102804  0.56708753     0.78100
Cd6        Cd  0.63475048  0.37967531  0.59471477     1.37500
O7          O  0.67549325  0.41526462  0.60488146    -0.56900
O8          O  0.61092439  0.42839924  0.58690982    -0.55700
C9          C  0.67230122  0.32836733  0.57532181     0.78100
O10         O  0.58672216  0.39281815  0.56001028    -0.58100
O11         O  0.66748833  0.40283459  0.55117067    -0.56500
O12         O  0.60283588  0.35756113  0.64204678    -0.56500
O13         O  0.67902189  0.34738868  0.59855109    -0.55700
O14         O  0.83192195  0.09440665  0.58956331    -0.56900
C15         C  0.87619802  0.11783387  0.66237105     0.75700
O16         O  0.92438629  0.11303777  0.54790582    -0.58000
C17         C  0.83897659  0.07707356  0.56463128     0.75700
C18         C  0.84747512  0.17883398  0.56793443     0.78100
Cd19       Cd  0.87925475  0.12310934  0.58812893     1.37500
O20         O  0.86083064  0.10095413  0.64224602    -0.56900
O21         O  0.84615162  0.15484624  0.55010000    -0.55700
C22         C  0.93945001  0.09796786  0.57043834     0.78100
O23         O  0.86765085  0.17879361  0.59175310    -0.58100
O24         O  0.89282690  0.13797075  0.64786099    -0.56500
O25         O  0.86490088  0.08122594  0.55030002    -0.56500
O26         O  0.92846805  0.09830806  0.60079555    -0.55700
O27         O  0.61041528  0.29859349  0.97186376    -0.56900
C28         C  0.57400990  0.34771848  0.92143610     0.75700
O29         O  0.54700425  0.32120149  0.04340720    -0.58000
C30         C  0.61667438  0.28684962  0.00110811     0.75700
C31         C  0.62444933  0.38820104  0.01601898     0.78100
Cd32       Cd  0.58076984  0.34020504  0.99500057     1.37500
O33         O  0.58681586  0.32486299  0.93524659    -0.56900
O34         O  0.63054277  0.36020082  0.01505915    -0.55700
C35         C  0.52447683  0.31362636  0.02440202     0.78100
O36         O  0.59643961  0.39496650  0.00983896    -0.58100
O37         O  0.56353974  0.36780760  0.94198058    -0.56500
O38         O  0.60618924  0.30016557  0.02773442    -0.56500
O39         O  0.52573104  0.32335548  0.99347644    -0.55700
O40         O  0.78897479  0.12186634  0.97612486    -0.56900
C41         C  0.84948083  0.10318952  0.92223264     0.75700
O42         O  0.88985220  0.11008584  0.01821234    -0.58000
C43         C  0.78117416  0.13135886  0.00590043     0.75700
C44         C  0.80892911  0.03926097  0.01238168     0.78100
Cd45       Cd  0.83601617  0.09811259  0.99512253     1.37500
O46         O  0.82611322  0.11522244  0.93628357    -0.56900
O47         O  0.81426163  0.05866702  0.03585402    -0.55700
C48         C  0.88294286  0.13756999  0.02487281     0.78100
O49         O  0.82141091  0.04477801  0.98336603    -0.58100
O50         O  0.86746340  0.08865406  0.94237219    -0.56500
O51         O  0.79883478  0.12505425  0.03111165    -0.56500
O52         O  0.85512489  0.14473356  0.01994558    -0.55700
O53         O  0.33665947  0.07463517  0.52146893    -0.56900
C54         C  0.36181449  0.11248459  0.43214523     0.75700
O55         O  0.36301846  0.17130852  0.51964290    -0.58000
C56         C  0.34032066  0.07666155  0.55402742     0.75700
C57         C  0.42938212  0.08606105  0.51257919     0.78100
Cd58       Cd  0.36997404  0.11544479  0.50585098     1.37500
O59         O  0.34834279  0.09462656  0.45310876    -0.56900
O60         O  0.42469208  0.11120126  0.52813124    -0.55700
C61         C  0.33362594  0.16965395  0.51850495     0.78100
O62         O  0.40799467  0.07704612  0.49291522    -0.58100
O63         O  0.37928824  0.13238889  0.44560966    -0.56500
O64         O  0.35809162  0.09722537  0.56525188    -0.56500
O65         O  0.32266629  0.14358695  0.51259789    -0.55700
O66         O  0.18600321  0.43555168  0.49137653    -0.56900
C67         C  0.13015026  0.38899855  0.41787555     0.75700
O68         O  0.15417547  0.34682613  0.51784429    -0.58000
C69         C  0.18964253  0.43398137  0.52416488     0.75700
C70         C  0.09778775  0.44058887  0.51147615     0.78100
Cd71       Cd  0.14509251  0.39818554  0.48999990     1.37500
O72         O  0.15274364  0.40505744  0.42780402    -0.56900
O73         O  0.11907019  0.44617909  0.48989921    -0.55700
C74         C  0.18080591  0.34414999  0.50382879     0.78100
O75         O  0.09681623  0.41337176  0.52319656    -0.58100
O76         O  0.11388962  0.37707227  0.44183200    -0.56500
O77         O  0.17273599  0.41535363  0.54061153    -0.56500
O78         O  0.18882336  0.36536323  0.48345134    -0.55700
O79         O  0.29934028  0.12624648  0.16155928    -0.56900
C80         C  0.27703446  0.15791480  0.06174917     0.75700
O81         O  0.36416457  0.12357075  0.07296214    -0.58000
C82         C  0.31990657  0.10876799  0.17400509     0.75700
C83         C  0.27210740  0.06450647  0.08324133     0.78100
Cd84       Cd  0.31147076  0.11558893  0.10054443     1.37500
O85         O  0.27701729  0.15782354  0.09479195    -0.56900
O86         O  0.26270719  0.08863837  0.09756336    -0.55700
C87         C  0.36664016  0.15023706  0.08572340     0.78100
O88         O  0.30104355  0.06286719  0.07716557    -0.58100
O89         O  0.29303951  0.13785777  0.04643729    -0.56500
O90         O  0.33536533  0.09346631  0.15217689    -0.56500
O91         O  0.34474199  0.15873209  0.10513876    -0.55700
O92         O  0.10616582  0.33556968  0.14528952    -0.56900
C93         C  0.11903405  0.30223738  0.05193263     0.75700
O94         O  0.04145703  0.31287917  0.10370620    -0.58000
C95         C  0.08989673  0.35476532  0.16173272     0.75700
C96         C  0.11664107  0.40128683  0.06934247     0.78100
Cd97       Cd  0.08374932  0.34625243  0.08791465     1.37500
O98         O  0.11500455  0.30090282  0.08459302    -0.56900
O99         O  0.08761338  0.40251260  0.07465285    -0.55700
C100        C  0.02639201  0.31400234  0.07569018     0.78100
O101        O  0.12864837  0.37512780  0.06985231    -0.58100
O102        O  0.10670134  0.32423006  0.03579525    -0.56500
O103        O  0.07044666  0.36959197  0.14381040    -0.56500
O104        O  0.03536758  0.33372824  0.05360291    -0.55700
C105        C  0.23882642  0.49091907  0.07651244    -0.01100
C106        C  0.20556593  0.99250048  0.06589870     0.07500
C107        C  0.19787100  0.02289729  0.05891236    -0.07100
C108        C  0.21934006  0.04638623  0.06355519     0.04900
C109        C  0.24980089  0.03977629  0.07472106    -0.14300
C110        C  0.25787072  0.00928679  0.08071718    -0.07600
C111        C  0.18337365  0.47404150  0.06369081     0.05900
C112        C  0.15638193  0.47754806  0.08373895    -0.08700
C113        C  0.13322171  0.45515095  0.08424851     0.00900
C114        C  0.13676385  0.42843060  0.06438825     0.00700
C115        C  0.16304350  0.42561696  0.04310691    -0.12300
C116        C  0.18594725  0.44816533  0.04221495     0.01200
C117        C  0.10729071  0.45916952  0.10737882     0.40500
C118        C  0.20968729  0.93837278  0.01970016     0.37100
C119        C  0.24776239  0.46045980  0.08629035     0.36900
C120        C  0.20922862  0.07714326  0.05683869     0.37600
N121        N  0.08658363  0.46240193  0.12603857    -0.43200
N122        N  0.23058028  0.93473055  0.00140802    -0.43600
N123        N  0.20081089  0.10171562  0.05166883    -0.41000
N124        N  0.25497661  0.43606114  0.09417372    -0.42400
H125        H  0.28087689  0.00391006  0.09005255     0.13800
H126        H  0.17463690  0.02840574  0.05040255     0.10200
H127        H  0.15388472  0.49742753  0.10007907     0.11300
H128        H  0.16601882  0.40532345  0.02752934     0.17100
C129        C  0.23416078  0.22986934  0.04491094    -0.01100
C130        C  0.21291920  0.22057288  0.01932181     0.07500
C131        C  0.21684222  0.19246489  0.00283815    -0.07100
C132        C  0.24005029  0.17244932  0.01389926     0.04900
C133        C  0.25862509  0.18039082  0.04259863    -0.14300
C134        C  0.25660514  0.20964538  0.05651794    -0.07600
C135        C  0.18356219  0.23722566  0.01587525     0.05900
C136        C  0.18390175  0.26641168  0.00116359    -0.08700
C137        C  0.16116548  0.28762586  0.01004288     0.00900
C138        C  0.13799380  0.27940257  0.03415043     0.00700
C139        C  0.13563478  0.24917062  0.04528845    -0.12300
C140        C  0.15807975  0.22795538  0.03612794     0.01200
C141        C  0.16427237  0.31839227  0.99734343     0.40500
C142        C  0.15636578  0.19786353  0.05117743     0.37100
C143        C  0.23147504  0.25891310  0.06208984     0.36900
C144        C  0.24267101  0.14315801  0.99737092     0.37600
N145        N  0.16683913  0.34303530  0.98713268    -0.43200
N146        N  0.15491421  0.17379105  0.06328891    -0.43600
N147        N  0.24500675  0.11971717  0.98407460    -0.41000
N148        N  0.22929619  0.28218459  0.07579043    -0.42400
H149        H  0.27147757  0.21610049  0.07793082     0.13800
H150        H  0.20059007  0.18543129  0.98302929     0.10200
H151        H  0.20360596  0.27352249  0.98566705     0.11300
H152        H  0.11733729  0.24261981  0.06314635     0.17100
C153        C  0.09007771  0.36150396  0.33579757    -0.01100
C154        C  0.10960557  0.37272951  0.30946273     0.07500
C155        C  0.13546604  0.38992222  0.31853424    -0.07100
C156        C  0.14234662  0.39595150  0.35337602     0.04900
C157        C  0.12324410  0.38418284  0.38025469    -0.14300
C158        C  0.09706916  0.36709045  0.37082971    -0.07600
C159        C  0.10357545  0.36703406  0.27211574     0.05900
C160        C  0.08242007  0.38551363  0.25443347    -0.08700
C161        C  0.07739973  0.38205770  0.21865582     0.00900
C162        C  0.09373809  0.35945076  0.19987178     0.00700
C163        C  0.11479073  0.34085993  0.21801129    -0.12300
C164        C  0.11980955  0.34451740  0.25371031     0.01200
C165        C  0.05577671  0.40251141  0.20218305     0.40500
C166        C  0.14170988  0.32487341  0.27098865     0.37100
C167        C  0.06291865  0.34406749  0.32732283     0.36900
C168        C  0.16915129  0.41440953  0.36030745     0.37600
N169        N  0.03844531  0.41904072  0.18919261    -0.43200
N170        N  0.15923530  0.30909382  0.28482704    -0.43600
N171        N  0.19058981  0.42933120  0.36566537    -0.41000
N172        N  0.04114701  0.33018280  0.32030293    -0.42400
H173        H  0.08196664  0.35802020  0.39081906     0.13800
H174        H  0.15031993  0.39879151  0.29815542     0.10200
H175        H  0.07013895  0.40303078  0.26859903     0.11300
H176        H  0.12755832  0.32341971  0.20431213     0.17100
C177        C  0.36491764  0.13287030  0.33635111    -0.01100
C178        C  0.34701597  0.10966925  0.32139149     0.07500
C179        C  0.33518455  0.08650423  0.34247725    -0.07100
C180        C  0.34006074  0.08656846  0.37840086     0.04900
C181        C  0.35714312  0.11043414  0.39392769    -0.14300
C182        C  0.36977833  0.13314702  0.37233714    -0.07600
C183        C  0.33969333  0.10935447  0.28385045     0.05900
C184        C  0.35417908  0.08798272  0.26248219    -0.08700
C185        C  0.34770334  0.08677758  0.22686037     0.00900
C186        C  0.32613547  0.10733536  0.21202796     0.00700
C187        C  0.31110384  0.12822404  0.23396491    -0.12300
C188        C  0.31769524  0.12933407  0.26954952     0.01200
C189        C  0.36361246  0.06412578  0.20651968     0.40500
C190        C  0.30137634  0.15085842  0.29109118     0.37100
C191        C  0.37871437  0.15639291  0.31518730     0.36900
C192        C  0.32721518  0.06169203  0.39826482     0.37600
N193        N  0.37643067  0.04592982  0.19033093    -0.43200
N194        N  0.28837618  0.16799814  0.30855124    -0.43600
N195        N  0.31688028  0.04166813  0.41400386    -0.41000
N196        N  0.38985027  0.17515890  0.29816873    -0.42400
H197        H  0.38327592  0.15137983  0.38354945     0.13800
H198        H  0.32169911  0.06847323  0.33078899     0.10200
H199        H  0.37075664  0.07229434  0.27371013     0.11300
H200        H  0.29439687  0.14405198  0.22331305     0.17100
C201        C  0.25875269  0.21472447  0.51912142    -0.01100
C202        C  0.26880840  0.24491648  0.52336317     0.07500
C203        C  0.30046908  0.25029094  0.52875739    -0.07100
C204        C  0.32208836  0.22634588  0.52848983     0.04900
C205        C  0.31216939  0.19617053  0.52261706    -0.14300
C206        C  0.28021853  0.19088899  0.51884885    -0.07600
C207        C  0.24689452  0.27107716  0.51963372     0.05900
C208        C  0.22163634  0.27404946  0.54245887    -0.08700
C209        C  0.19965488  0.29740069  0.53810606     0.00900
C210        C  0.20249457  0.31819310  0.51013889     0.00700
C211        C  0.22812319  0.31527927  0.48777157    -0.12300
C212        C  0.25010885  0.29227494  0.49230840     0.01200
C213        C  0.17518705  0.30001361  0.56338653     0.40500
C214        C  0.27539020  0.29053700  0.46787262     0.37100
C215        C  0.22662009  0.20767665  0.51328116     0.36900
C216        C  0.35416341  0.23359508  0.53400154     0.37600
N217        N  0.15571032  0.30221033  0.58383842    -0.43200
N218        N  0.29568566  0.28931088  0.44834301    -0.43600
N219        N  0.37985734  0.23949351  0.53857279    -0.41000
N220        N  0.20086178  0.20207414  0.50867400    -0.42400
H221        H  0.27180910  0.16802542  0.51468485     0.13800
H222        H  0.30837946  0.27338465  0.53250271     0.10200
H223        H  0.21914792  0.25810441  0.56378321     0.11300
H224        H  0.23108556  0.33101586  0.46631251     0.17100
C225        C  0.31098747  0.50164481  0.57937760    -0.01100
C226        C  0.27955374  0.01040888  0.58516335     0.07500
C227        C  0.27237145  0.04054367  0.59381471    -0.07100
C228        C  0.29451961  0.06335017  0.58956677     0.04900
C229        C  0.32394344  0.05557255  0.57682260    -0.14300
C230        C  0.33253148  0.02497515  0.57459553    -0.07600
C231        C  0.25479214  0.49281392  0.57385012     0.05900
C232        C  0.24465728  0.46686378  0.59154131    -0.08700
C233        C  0.22324326  0.44726984  0.57614520     0.00900
C234        C  0.21202772  0.45363277  0.54224049     0.00700
C235        C  0.22213176  0.47989240  0.52495316    -0.12300
C236        C  0.24319324  0.49945541  0.54041134     0.01200
C237        C  0.21424591  0.42040166  0.59526714     0.40500
C238        C  0.25392753  0.02301137  0.51711558     0.37100
C239        C  0.31796189  0.47053812  0.57040967     0.36900
C240        C  0.28530771  0.09471587  0.59338018     0.37600
N241        N  0.20709135  0.39892438  0.61074441    -0.43200
N242        N  0.26201172  0.04394831  0.50125791    -0.43600
N243        N  0.27790919  0.11983988  0.59649230    -0.41000
N244        N  0.32343536  0.44563104  0.56306351    -0.42400
H245        H  0.35532138  0.01906305  0.56500926     0.13800
H246        H  0.24859605  0.04675797  0.59912123     0.10200
H247        H  0.25414310  0.46152519  0.61697614     0.11300
H248        H  0.21359262  0.48523523  0.49909027     0.17100
C249        C  0.91190009  0.21380987  0.05647480    -0.01100
C250        C  0.94397443  0.21208537  0.05072766     0.07500
C251        C  0.95662464  0.18437891  0.03922256    -0.07100
C252        C  0.93767276  0.15906101  0.03229021     0.04900
C253        C  0.90530041  0.16131982  0.03658440    -0.14300
C254        C  0.89306296  0.18878626  0.04935789    -0.07600
C255        C  0.96426397  0.23916761  0.05635645     0.05900
C256        C  0.96688290  0.25135783  0.08987676    -0.08700
C257        C  0.98529958  0.27694490  0.09629440     0.00900
C258        C  0.00163184  0.29120593  0.06877666     0.00700
C259        C  0.99810139  0.27961790  0.03496116    -0.12300
C260        C  0.97991496  0.25369891  0.02868154     0.01200
C261        C  0.98714874  0.28793832  0.13155953     0.40500
C262        C  0.97790785  0.24213283  0.99369499     0.37100
C263        C  0.89748797  0.24146293  0.06847297     0.36900
C264        C  0.95197278  0.13154760  0.01980698     0.37600
N265        N  0.98873911  0.29672206  0.15981872    -0.43200
N266        N  0.97632773  0.23258344  0.96576698    -0.43600
N267        N  0.96344011  0.10944157  0.00990234    -0.41000
N268        N  0.88593258  0.26357179  0.07821767    -0.42400
H269        H  0.86838020  0.19110155  0.05312513     0.13800
H270        H  0.98133137  0.18266301  0.03525567     0.10200
H271        H  0.95472996  0.24056906  0.11125095     0.11300
H272        H  0.01079351  0.28985725  0.01364643     0.17100
C273        C  0.45750184  0.25763329  0.01960869    -0.01100
C274        C  0.45764263  0.24411262  0.05299016     0.07500
C275        C  0.47841166  0.25536796  0.07785377    -0.07100
C276        C  0.49889394  0.27921336  0.07002703     0.04900
C277        C  0.49952701  0.29220967  0.03624264    -0.14300
C278        C  0.47820207  0.28128436  0.01158499    -0.07600
C279        C  0.43585787  0.21887530  0.06276824     0.05900
C280        C  0.43551716  0.19159089  0.04363383    -0.08700
C281        C  0.41438352  0.16811164  0.05136334     0.00900
C282        C  0.39267420  0.17180131  0.07851334     0.00700
C283        C  0.39411357  0.19857425  0.09846731    -0.12300
C284        C  0.41527874  0.22174161  0.09103667     0.01200
C285        C  0.41535752  0.14078905  0.03078408     0.40500
C286        C  0.41462844  0.24865470  0.11240620     0.37100
C287        C  0.43624595  0.24771091  0.99308925     0.36900
C288        C  0.51911782  0.28949618  0.09732176     0.37600
N289        N  0.41629737  0.11877853  0.01444433    -0.43200
N290        N  0.41422842  0.27004250  0.12981141    -0.43600
N291        N  0.53520010  0.29772039  0.11935251    -0.41000
N292        N  0.41927675  0.23962625  0.97184198    -0.42400
H293        H  0.47816858  0.29066838  0.98549485     0.13800
H294        H  0.47883893  0.24524129  0.10358692     0.10200
H295        H  0.45173600  0.18867964  0.02247678     0.11300
H296        H  0.37815764  0.20185560  0.11982004     0.17100
C297        C  0.74595780  0.99085697  0.05383684    -0.01100
C298        C  0.73451248  0.97450843  0.02517280     0.07500
C299        C  0.74801600  0.46992852  0.99375791    -0.07100
C300        C  0.77623411  0.99530159  0.98938687     0.04900
C301        C  0.78659043  0.01353572  0.01746961    -0.14300
C302        C  0.77155763  0.01024464  0.04979995    -0.07600
C303        C  0.70231224  0.44980236  0.02608929     0.05900
C304        C  0.67307246  0.46148750  0.01750023    -0.08700
C305        C  0.64688511  0.44247840  0.01595219     0.00900
C306        C  0.64978827  0.41086500  0.02250031     0.00700
C307        C  0.67903374  0.39973838  0.03265120    -0.12300
C308        C  0.70492893  0.41881928  0.03465180     0.01200
C309        C  0.61766170  0.45605438  0.00683888     0.40500
C310        C  0.73419472  0.40615439  0.04531301     0.37100
C311        C  0.73135501  0.98854406  0.08746035     0.36900
C312        C  0.79094413  0.99598010  0.95567927     0.37600
N313        N  0.59426940  0.46716834  0.99974909    -0.43200
N314        N  0.75774380  0.39634347  0.05404424    -0.43600
N315        N  0.80267993  0.99639496  0.92863482    -0.41000
N316        N  0.71972226  0.98654975  0.11446314    -0.42400
H317        H  0.77906915  0.02366625  0.07177330     0.13800
H318        H  0.74147248  0.45524619  0.97243730     0.10200
H319        H  0.67605088  0.98938916  0.00744655     0.11300
H320        H  0.68197004  0.37579353  0.03842114     0.17100
C321        C  0.67626573  0.22869562  0.97723589    -0.01100
C322        C  0.67674509  0.20997185  0.00699780     0.07500
C323        C  0.65670491  0.21587149  0.03472501    -0.07100
C324        C  0.63635064  0.24047894  0.03333209     0.04900
C325        C  0.63607958  0.25950965  0.00360501    -0.14300
C326        C  0.65574273  0.25297456  0.97559671    -0.07600
C327        C  0.70047278  0.18636376  0.01089882     0.05900
C328        C  0.72466580  0.19187264  0.03412409    -0.08700
C329        C  0.75109480  0.17376176  0.03373337     0.00900
C330        C  0.75286007  0.14910741  0.01042932     0.00700
C331        C  0.72780565  0.14262477  0.98865490    -0.12300
C332        C  0.70174177  0.16115709  0.98852091     0.01200
C333        C  0.77709066  0.18311154  0.05458608     0.40500
C334        C  0.67756007  0.15503156  0.96371452     0.37100
C335        C  0.69785665  0.22447461  0.94897847     0.36900
C336        C  0.61607298  0.24544985  0.06259779     0.37600
N337        N  0.79789021  0.19111413  0.07101788    -0.43200
N338        N  0.65849902  0.15029794  0.94340541    -0.43600
N339        N  0.59984922  0.24939896  0.08608013    -0.41000
N340        N  0.71524431  0.22091046  0.92649612    -0.42400
H341        H  0.65597884  0.26759437  0.95276780     0.13800
H342        H  0.65742929  0.20150266  0.05776223     0.10200
H343        H  0.72382147  0.21172199  0.05078023     0.11300
H344        H  0.72908823  0.12366842  0.97072278     0.17100
C345        C  0.99208087  0.04531528  0.51945573    -0.01100
C346        C  0.01104537  0.03303496  0.54578540     0.07500
C347        C  0.00855414  0.04446096  0.57959291    -0.07100
C348        C  0.98676236  0.06695657  0.58778718     0.04900
C349        C  0.96678204  0.07864551  0.56172958    -0.14300
C350        C  0.97032615  0.06798421  0.52748732    -0.07600
C351        C  0.03139565  0.51072882  0.53866148     0.05900
C352        C  0.05843715  0.51827377  0.52080074    -0.08700
C353        C  0.08046436  0.49610778  0.51252484     0.00900
C354        C  0.07552135  0.46510792  0.52179122     0.00700
C355        C  0.04859513  0.45778763  0.54055557    -0.12300
C356        C  0.02665607  0.48026189  0.54896985     0.01200
C357        C  0.10803283  0.50636660  0.49487801     0.40500
C358        C  0.99895015  0.47152615  0.56728667     0.37100
C359        C  0.99358673  0.03388890  0.48436483     0.36900
C360        C  0.98535280  0.07725657  0.62335031     0.37600
N361        N  0.13006612  0.51474880  0.48077248    -0.43200
N362        N  0.97661762  0.46473068  0.58188380    -0.43600
N363        N  0.98425446  0.08537717  0.65190461    -0.41000
N364        N  0.99480390  0.02453249  0.45632299    -0.42400
H365        H  0.95507116  0.07623141  0.50725085     0.13800
H366        H  0.02096285  0.53734114  0.60021797     0.10200
H367        H  0.06613082  0.03947676  0.51544205     0.11300
H368        H  0.04435252  0.43440134  0.54815798     0.17100
C369        C  0.89069537  0.09919655  0.83530134    -0.01100
C370        C  0.86768974  0.10943965  0.81222279     0.07500
C371        C  0.83883286  0.11800552  0.82524117    -0.07100
C372        C  0.83241238  0.11645735  0.86079116     0.04900
C373        C  0.85532472  0.10592729  0.88427001    -0.14300
C374        C  0.88438030  0.09749500  0.87100701    -0.07600
C375        C  0.87234402  0.11038986  0.77412885     0.05900
C376        C  0.85628512  0.08950994  0.75363941    -0.08700
C377        C  0.85739821  0.09110901  0.71734995     0.00900
C378        C  0.87486211  0.11430675  0.70081402     0.00700
C379        C  0.89140320  0.13486579  0.72164748    -0.12300
C380        C  0.89021395  0.13310352  0.75798324     0.01200
C381        C  0.84009713  0.06866965  0.69821305     0.40500
C382        C  0.90660429  0.15544609  0.77818494     0.37100
C383        C  0.92059430  0.08964978  0.82283623     0.36900
C384        C  0.80179165  0.12516247  0.87186835     0.37600
N385        N  0.82616899  0.05058206  0.68312945    -0.43200
N386        N  0.91974190  0.17332515  0.79442524    -0.43600
N387        N  0.77719899  0.13218922  0.88047146    -0.41000
N388        N  0.94457818  0.08200192  0.81287801    -0.42400
H389        H  0.90222741  0.08943496  0.88851683     0.13800
H390        H  0.82109886  0.12575870  0.80735644     0.10200
H391        H  0.84242339  0.07210750  0.76617064     0.11300
H392        H  0.90496214  0.15273238  0.70960347     0.17100
C393        C  0.51511657  0.46096892  0.53928115    -0.01100
C394        C  0.52504099  0.49146800  0.53578724     0.07500
C395        C  0.55631264  0.49817377  0.54056796    -0.07100
C396        C  0.57756079  0.47534731  0.54918452     0.04900
C397        C  0.56759243  0.44486607  0.55375885    -0.14300
C398        C  0.53638018  0.43798727  0.54800227    -0.07600
C399        C  0.50151458  0.02003254  0.52951657     0.05900
C400        C  0.49582798  0.04234912  0.55479293    -0.08700
C401        C  0.47389646  0.06545172  0.54915465     0.00900
C402        C  0.45721137  0.06652182  0.51760431     0.00700
C403        C  0.46439869  0.04512760  0.49162241    -0.12300
C404        C  0.48637211  0.02222474  0.49723391     0.01200
C405        C  0.46763560  0.08642475  0.57703256     0.40500
C406        C  0.49296062  0.00108605  0.46955903     0.37100
C407        C  0.48303057  0.45291632  0.53531850     0.36900
C408        C  0.60962348  0.48392340  0.55243722     0.37600
N409        N  0.46258075  0.10320933  0.59941894    -0.43200
N410        N  0.49837673  0.98404856  0.44753059    -0.43600
N411        N  0.63529081  0.49082555  0.55496404    -0.41000
N412        N  0.45730571  0.44653741  0.53196597    -0.42400
H413        H  0.52835348  0.41484880  0.55154933     0.13800
H414        H  0.56246026  0.02451669  0.53908925     0.10200
H415        H  0.51111930  0.53910996  0.57671577     0.11300
H416        H  0.45218791  0.04576266  0.46707096     0.17100
C417        C  0.57087884  0.35216937  0.74690983    -0.01100
C418        C  0.59072225  0.36164790  0.77375294     0.07500
C419        C  0.61976445  0.37352098  0.76523794    -0.07100
C420        C  0.62910146  0.37654310  0.73058281     0.04900
C421        C  0.60908793  0.36738861  0.70341893    -0.14300
C422        C  0.58014614  0.35506832  0.71213929    -0.07600
C423        C  0.58222399  0.35866042  0.81101099     0.05900
C424        C  0.57796802  0.32956622  0.82518041    -0.08700
C425        C  0.57326133  0.32558606  0.86090213     0.00900
C426        C  0.57306915  0.35111087  0.88318177     0.00700
C427        C  0.57544066  0.38030944  0.86866346    -0.12300
C428        C  0.58018677  0.38424000  0.83291901     0.01200
C429        C  0.56859203  0.29508723  0.87392738     0.40500
C430        C  0.58348172  0.41470426  0.81937991     0.37100
C431        C  0.54062975  0.34010220  0.75443320     0.36900
C432        C  0.65958633  0.38858093  0.72404542     0.37600
N433        N  0.56471618  0.27068273  0.88436945    -0.43200
N434        N  0.58620142  0.43911777  0.80852979    -0.43600
N435        N  0.68401114  0.39824106  0.71889128    -0.41000
N436        N  0.51640576  0.33041150  0.76057223    -0.42400
H437        H  0.56446237  0.34805427  0.69174238     0.13800
H438        H  0.63531262  0.38030236  0.78588310     0.10200
H439        H  0.57920557  0.30984739  0.80839895     0.11300
H440        H  0.57511188  0.40005455  0.88544749     0.17100
C441        C  0.75146359  0.29840362  0.55427130    -0.01100
C442        C  0.74730451  0.26663705  0.55534770     0.07500
C443        C  0.71712271  0.25505919  0.55882390    -0.07100
C444        C  0.69163306  0.27463723  0.56314402     0.04900
C445        C  0.69628006  0.30631529  0.56426022    -0.09500
C446        C  0.72618060  0.31778023  0.55887135    -0.07600
C447        C  0.77436710  0.24549485  0.55633328     0.05900
C448        C  0.79541756  0.24781163  0.58393260    -0.08700
C449        C  0.82031921  0.22757668  0.58732856     0.00900
C450        C  0.82472691  0.20412299  0.56263988     0.00700
C451        C  0.80400270  0.20246125  0.53442615    -0.12300
C452        C  0.77911241  0.22280407  0.53113011     0.01200
C453        C  0.83988242  0.23077933  0.61743883     0.40500
C454        C  0.75887144  0.22010685  0.50152693     0.37100
C455        C  0.78157353  0.31172960  0.54907105     0.36900
C456        C  0.66149983  0.26168011  0.56895571     0.37600
N457        N  0.85538617  0.23345888  0.64170929    -0.43200
N458        N  0.74267663  0.21802948  0.47775720    -0.43600
N459        N  0.63736475  0.25120518  0.57368038    -0.41000
N460        N  0.80565913  0.32249223  0.54490932    -0.42400
H461        H  0.72995586  0.34214003  0.55926489     0.13800
H462        H  0.71365965  0.23068917  0.55979139     0.10200
H463        H  0.79187113  0.26510498  0.60352637     0.11300
H464        H  0.80674172  0.18472995  0.51521401     0.17100
C465        C  0.75485413  0.46451846  0.58035277    -0.01100
C466        C  0.75554767  0.47952164  0.54800090     0.07500
C467        C  0.73380549  0.47247161  0.52244092    -0.07100
C468        C  0.71038426  0.45149124  0.52937113     0.04900
C469        C  0.70866354  0.43763785  0.56258068    -0.14300
C470        C  0.73147943  0.44378213  0.58738773    -0.07600
C471        C  0.77593816  0.00569909  0.54325154     0.05900
C472        C  0.80721140  0.50153183  0.53804900    -0.08700
C473        C  0.82861458  0.02421604  0.54284751     0.00900
C474        C  0.81787012  0.05303955  0.55351893     0.00700
C475        C  0.78608932  0.05834438  0.55669050    -0.12300
C476        C  0.76505907  0.03493195  0.55154175     0.01200
C477        C  0.86113250  0.01735012  0.54012148     0.40500
C478        C  0.73264864  0.04071383  0.55759218     0.37100
C479        C  0.77676575  0.47152688  0.60746694     0.36900
C480        C  0.68748933  0.44626855  0.50281928     0.37600
N481        N  0.88719486  0.01183410  0.53807327    -0.43200
N482        N  0.70666585  0.04514224  0.56243690    -0.43600
N483        N  0.66917288  0.44215063  0.48148205    -0.41000
N484        N  0.79433782  0.47726287  0.62909576    -0.42400
H485        H  0.73062658  0.43293383  0.61277860     0.13800
H486        H  0.73394297  0.98543367  0.49768046     0.10200
H487        H  0.81581411  0.47886673  0.53242597     0.11300
H488        H  0.77772888  0.08056551  0.56458347     0.17100
O489        O  0.63797825  0.89137148  0.65679731    -0.56900
C490        C  0.68153217  0.91955592  0.57287279     0.75700
O491        O  0.64294235  0.83276684  0.56279915    -0.58000
C492        C  0.61624271  0.87438709  0.66692655     0.75700
C493        C  0.58724489  0.92388203  0.56773691     0.78100
Cd494      Cd  0.63280575  0.88225904  0.59514620     1.37500
O495        O  0.67430827  0.91699946  0.60474574    -0.56900
O496        O  0.60939096  0.93114528  0.58724963    -0.55700
C497        C  0.66984967  0.83051544  0.57600004     0.78100
O498        O  0.58465320  0.89567022  0.56079194    -0.58100
O499        O  0.66544838  0.90497276  0.55108287    -0.56500
O500        O  0.60145277  0.86057431  0.64328959    -0.56500
O501        O  0.67687870  0.84976845  0.59885308    -0.55700
O502        O  0.82990841  0.59557739  0.58972670    -0.56900
C503        C  0.87337943  0.61885587  0.66294433     0.75700
O504        O  0.92193411  0.61516082  0.54869919    -0.58000
C505        C  0.83734210  0.57846909  0.56472573     0.75700
C506        C  0.84484590  0.68080398  0.56910459     0.78100
Cd507      Cd  0.87682142  0.62500794  0.58887441     1.37500
O508        O  0.85807586  0.60230649  0.64240715    -0.56900
O509        O  0.84377932  0.65693539  0.55103892    -0.55700
C510        C  0.93719547  0.60034666  0.57127944     0.78100
O511        O  0.86477652  0.68063909  0.59317738    -0.58100
O512        O  0.89010515  0.63918932  0.64894855    -0.56500
O513        O  0.86323432  0.58313066  0.55053039    -0.56500
O514        O  0.92640970  0.60092894  0.60172429    -0.55700
O515        O  0.61573173  0.80349692  0.97476834    -0.56900
C516        C  0.57830329  0.85182359  0.92346047     0.75700
O517        O  0.55065470  0.82656475  0.04531052    -0.58000
C518        C  0.62086233  0.79135787  0.00408627     0.75700
C519        C  0.62862567  0.89315267  0.01813236     0.78100
Cd520      Cd  0.58529633  0.84481723  0.99710553     1.37500
O521        O  0.59222202  0.82963979  0.93735014    -0.56900
O522        O  0.63478046  0.86514752  0.01810159    -0.55700
C523        C  0.52874730  0.81810626  0.02585624     0.78100
O524        O  0.60073771  0.89974058  0.01108655    -0.58100
O525        O  0.56709277  0.87157945  0.94393663    -0.56500
O526        O  0.60962824  0.80449153  0.03044236    -0.56500
O527        O  0.53069116  0.82697208  0.99464972    -0.55700
O528        O  0.78490506  0.61900674  0.97697817    -0.56900
C529        C  0.84448243  0.59920629  0.92202012     0.75700
O530        O  0.88604112  0.60531663  0.01674533    -0.58000
C531        C  0.77767564  0.62824739  0.00704975     0.75700
C532        C  0.80429416  0.53495449  0.01215236     0.78100
Cd533      Cd  0.83157361  0.59379360  0.99495430     1.37500
O534        O  0.82090391  0.61075187  0.93617836    -0.56900
O535        O  0.81003170  0.55420380  0.03566893    -0.55700
C536        C  0.87931961  0.63269414  0.02416409     0.78100
O537        O  0.81625421  0.54067408  0.98291260    -0.58100
O538        O  0.86275284  0.58486995  0.94200919    -0.56500
O539        O  0.79532604  0.62090430  0.03190116    -0.56500
O540        O  0.85138841  0.63989774  0.02025734    -0.55700
O541        O  0.33924128  0.57264657  0.52126400    -0.56900
C542        C  0.36457201  0.61228108  0.43138634     0.75700
O543        O  0.36482965  0.66919119  0.52032697    -0.58000
C544        C  0.34261390  0.57528853  0.55382284     0.75700
C545        C  0.43108863  0.58311318  0.51141956     0.78100
Cd546      Cd  0.37221630  0.61362073  0.50520404     1.37500
O547        O  0.35050983  0.59429866  0.45172675    -0.56900
O548        O  0.42727365  0.60879082  0.52614659    -0.55700
C549        C  0.33546450  0.66746205  0.51831843     0.78100
O550        O  0.40898607  0.57387610  0.49290425    -0.58100
O551        O  0.38242531  0.63147272  0.44555181    -0.56500
O552        O  0.36005687  0.59624968  0.56475833    -0.56500
O553        O  0.32473543  0.64150678  0.51128916    -0.55700
O554        O  0.18685485  0.93209152  0.48918548    -0.56900
C555        C  0.12996764  0.88501225  0.41685867     0.75700
O556        O  0.15499273  0.84369912  0.51697531    -0.58000
C557        C  0.19053772  0.93099176  0.52199838     0.75700
C558        C  0.09921567  0.93769068  0.51085047     0.78100
Cd559      Cd  0.14576298  0.89488374  0.48867692     1.37500
O560        O  0.15258972  0.90127677  0.42626303    -0.56900
O561        O  0.12014377  0.94311205  0.48877409    -0.55700
C562        C  0.18167387  0.84106028  0.50307709     0.78100
O563        O  0.09811778  0.91047105  0.52254473    -0.58100
O564        O  0.11393720  0.87335368  0.44117939    -0.56500
O565        O  0.17364603  0.91260161  0.53881429    -0.56500
O566        O  0.18964496  0.86220198  0.48257716    -0.55700
O567        O  0.30288518  0.63132664  0.16076000    -0.56900
C568        C  0.28045068  0.66166858  0.05904659     0.75700
O569        O  0.36777270  0.62835438  0.07340758    -0.58000
C570        C  0.32331503  0.61355656  0.17299894     0.75700
C571        C  0.27513209  0.56947183  0.08297248     0.78100
Cd572      Cd  0.31467765  0.62048062  0.09960463     1.37500
O573        O  0.27993413  0.66221762  0.09209197    -0.56900
O574        O  0.26596650  0.59349068  0.09774993    -0.55700
C575        C  0.36981495  0.65527176  0.08558929     0.78100
O576        O  0.30396610  0.56786245  0.07625208    -0.58100
O577        O  0.29701243  0.64158494  0.04453125    -0.56500
O578        O  0.33851996  0.59818411  0.15101072    -0.56500
O579        O  0.34735557  0.66412390  0.10398586    -0.55700
O580        O  0.10321754  0.83017331  0.14498257    -0.56900
C581        C  0.11688638  0.79821009  0.05069367     0.75700
O582        O  0.03981720  0.80611448  0.10320581    -0.58000
C583        C  0.08712866  0.84948573  0.16146524     0.75700
C584        C  0.11387828  0.89607537  0.06917440     0.78100
Cd585      Cd  0.08092630  0.84101371  0.08769098     1.37500
O586        O  0.11335338  0.79649127  0.08341238    -0.56900
O587        O  0.08485329  0.89734683  0.07454859    -0.55700
C588        C  0.02385938  0.80812730  0.07588284     0.78100
O589        O  0.12582282  0.86988995  0.06965603    -0.58100
O590        O  0.10342004  0.81978938  0.03497340    -0.56500
O591        O  0.06776691  0.86447831  0.14359615    -0.56500
O592        O  0.03189526  0.82878008  0.05443581    -0.55700
C593        C  0.23598337  0.98584125  0.07719013    -0.01100
C594        C  0.20823456  0.49774080  0.06595668     0.07500
C595        C  0.20046609  0.52822490  0.05958915    -0.07100
C596        C  0.22205720  0.55162648  0.06409742     0.04900
C597        C  0.25266324  0.54485366  0.07460374    -0.14300
C598        C  0.26078807  0.51429828  0.07998512    -0.07600
C599        C  0.18074334  0.96876560  0.06358002     0.05900
C600        C  0.15347925  0.97251797  0.08309225    -0.08700
C601        C  0.13029275  0.95014462  0.08353789     0.00900
C602        C  0.13409009  0.92317523  0.06418029     0.00700
C603        C  0.16066287  0.92011601  0.04339049    -0.12300
C604        C  0.18359634  0.94264109  0.04255177     0.01200
C605        C  0.10401353  0.95450895  0.10607139     0.40500
C606        C  0.21173420  0.44416309  0.01887153     0.37100
C607        C  0.24474124  0.95552845  0.08774706     0.36900
C608        C  0.21198862  0.58246396  0.05779002     0.37600
N609        N  0.08301852  0.95803678  0.12424482    -0.43200
N610        N  0.23240117  0.44072913  0.00020519    -0.43600
N611        N  0.20369591  0.60712153  0.05291075    -0.41000
N612        N  0.25179482  0.93125461  0.09629826    -0.42400
H613        H  0.28393831  0.50879199  0.08875312     0.13800
H614        H  0.17711693  0.53385596  0.05160039     0.10200
H615        H  0.15076327  0.99259912  0.09906238     0.11300
H616        H  0.16384388  0.89965328  0.02816338     0.17100
C617        C  0.23586532  0.73214314  0.04050161    -0.01100
C618        C  0.21455529  0.72166369  0.01558563     0.07500
C619        C  0.21932624  0.69347095  0.99955262    -0.07100
C620        C  0.24326955  0.67437376  0.01075238     0.04900
C621        C  0.26183958  0.68339538  0.03902857    -0.14300
C622        C  0.25915305  0.71288000  0.05213791    -0.07600
C623        C  0.18429675  0.73683059  0.01292837     0.05900
C624        C  0.18279643  0.76605800  0.99841907    -0.08700
C625        C  0.15905786  0.78598045  0.00787710     0.00900
C626        C  0.13673693  0.77643682  0.03238173     0.00700
C627        C  0.13625001  0.74609065  0.04340392    -0.12300
C628        C  0.15967228  0.72613867  0.03363202     0.01200
C629        C  0.16025754  0.81691233  0.99528557     0.40500
C630        C  0.15978864  0.69591197  0.04844516     0.37100
C631        C  0.23226619  0.76124141  0.05734431     0.36900
C632        C  0.24647525  0.64477814  0.99507261     0.37600
N633        N  0.16126564  0.84169236  0.98516097    -0.43200
N634        N  0.15979124  0.67171609  0.06034078    -0.43600
N635        N  0.24921997  0.62109333  0.98245219    -0.41000
N636        N  0.22935090  0.78452593  0.07084423    -0.42400
H637        H  0.27400166  0.72014894  0.07322559     0.13800
H638        H  0.20303348  0.68552238  0.98024811     0.10200
H639        H  0.20182431  0.77427655  0.98256816     0.11300
H640        H  0.11863824  0.73850343  0.06159899     0.17100
C641        C  0.08732209  0.85978244  0.33544885    -0.01100
C642        C  0.10826759  0.86773844  0.30892452     0.07500
C643        C  0.13606512  0.88188857  0.31768936    -0.07100
C644        C  0.14341561  0.88813574  0.35235570     0.04900
C645        C  0.12277316  0.87971098  0.37940419    -0.14300
C646        C  0.09475284  0.86556121  0.37033544    -0.07600
C647        C  0.10170618  0.86186344  0.27168986     0.05900
C648        C  0.08052826  0.88044908  0.25415152    -0.08700
C649        C  0.07511218  0.87688500  0.21845813     0.00900
C650        C  0.09113868  0.85413151  0.19958003     0.00700
C651        C  0.11209722  0.83534849  0.21758280    -0.12300
C652        C  0.11744162  0.83903659  0.25320746     0.01200
C653        C  0.05336050  0.89732396  0.20217734     0.40500
C654        C  0.13897450  0.81891937  0.27036286     0.37100
C655        C  0.05830466  0.84536508  0.32733551     0.36900
C656        C  0.17246424  0.90305599  0.35898894     0.37600
N657        N  0.03589458  0.91381370  0.18935102    -0.43200
N658        N  0.15617207  0.80271100  0.28407601    -0.43600
N659        N  0.19571783  0.91513613  0.36412962    -0.41000
N660        N  0.03507578  0.83387925  0.32055265    -0.42400
H661        H  0.07850605  0.85906016  0.39048896     0.13800
H662        H  0.15207836  0.88822268  0.29719664     0.10200
H663        H  0.06855561  0.89814799  0.26835400     0.11300
H664        H  0.12452382  0.81770041  0.20383480     0.17100
C665        C  0.36841982  0.63497603  0.33628772    -0.01100
C666        C  0.35054848  0.61220576  0.32042577     0.07500
C667        C  0.33844071  0.58862019  0.34069703    -0.07100
C668        C  0.34298980  0.58784097  0.37666552     0.04900
C669        C  0.36014206  0.61118669  0.39307621    -0.14300
C670        C  0.37305602  0.63433500  0.37231480    -0.07600
C671        C  0.34346697  0.61275721  0.28280380     0.05900
C672        C  0.35715994  0.59109597  0.26115180    -0.08700
C673        C  0.35056208  0.59039231  0.22554217     0.00900
C674        C  0.32969548  0.61178518  0.21097705     0.00700
C675        C  0.31549988  0.63303542  0.23315527    -0.12300
C676        C  0.32218662  0.63361918  0.26874789     0.01200
C677        C  0.36548923  0.56726283  0.20496070     0.40500
C678        C  0.30659260  0.65543342  0.29058129     0.37100
C679        C  0.38234766  0.65903588  0.31604530     0.36900
C680        C  0.32967064  0.56269992  0.39566990     0.37600
N681        N  0.37749937  0.54867841  0.18856831    -0.43200
N682        N  0.29419688  0.67279348  0.30830848    -0.43600
N683        N  0.31891796  0.54249120  0.41072464    -0.41000
N684        N  0.39354336  0.67827849  0.29979249    -0.42400
H685        H  0.38655056  0.65222685  0.38422534     0.13800
H686        H  0.32492823  0.57095298  0.32834266     0.10200
H687        H  0.37313794  0.57470710  0.27217491     0.11300
H688        H  0.29933569  0.64949825  0.22269904     0.17100
C689        C  0.26028292  0.71204630  0.51861758    -0.01100
C690        C  0.27008511  0.74225876  0.52335545     0.07500
C691        C  0.30163076  0.74776628  0.52940061    -0.07100
C692        C  0.32340131  0.72394026  0.52927144     0.04900
C693        C  0.31378110  0.69378796  0.52265695    -0.14300
C694        C  0.28191468  0.68835669  0.51830716    -0.07600
C695        C  0.24805720  0.76831755  0.51948786     0.05900
C696        C  0.22255903  0.77107937  0.54200981    -0.08700
C697        C  0.20047688  0.79432083  0.53747402     0.00900
C698        C  0.20347206  0.81522568  0.50963023     0.00700
C699        C  0.22933034  0.81250674  0.48756645    -0.12300
C700        C  0.25139158  0.78959906  0.49226900     0.01200
C701        C  0.17570572  0.79666057  0.56241349     0.40500
C702        C  0.27685051  0.78801546  0.46805685     0.37100
C703        C  0.22825157  0.70483371  0.51236796     0.36900
C704        C  0.35529944  0.73126790  0.53582987     0.37600
N705        N  0.15598496  0.79861486  0.58260040    -0.43200
N706        N  0.29725908  0.78692144  0.44866723    -0.43600
N707        N  0.38083458  0.73722796  0.54132116    -0.41000
N708        N  0.20257170  0.69907797  0.50746903    -0.42400
H709        H  0.27370557  0.66549046  0.51369081     0.13800
H710        H  0.30933186  0.77086585  0.53360781     0.10200
H711        H  0.21994813  0.75504181  0.56322423     0.11300
H712        H  0.23240902  0.82830787  0.46619026     0.17100
C713        C  0.31045566  0.00221108  0.57873779    -0.01100
C714        C  0.28068328  0.51081639  0.58748783     0.07500
C715        C  0.27493666  0.54110276  0.59679363    -0.07100
C716        C  0.29763519  0.56321110  0.59141688     0.04900
C717        C  0.32618425  0.55453289  0.57699453    -0.14300
C718        C  0.33361147  0.52368919  0.57414019    -0.07600
C719        C  0.25475855  0.99126431  0.57099651     0.05900
C720        C  0.24459514  0.96562451  0.58923776    -0.08700
C721        C  0.22357702  0.94551147  0.57402837     0.00900
C722        C  0.21287226  0.95097132  0.53970540     0.00700
C723        C  0.22319292  0.97681431  0.52175658    -0.12300
C724        C  0.24377292  0.99695420  0.53707947     0.01200
C725        C  0.21421637  0.91922079  0.59396518     0.40500
C726        C  0.25350643  0.52569785  0.52086748     0.37100
C727        C  0.31888847  0.97127555  0.57062588     0.36900
C728        C  0.28959713  0.59483577  0.59573464     0.37600
N729        N  0.20674124  0.89823782  0.61012513    -0.43200
N730        N  0.26179327  0.54675439  0.50535494    -0.43600
N731        N  0.28311046  0.62016359  0.59922052    -0.41000
N732        N  0.32557923  0.94649650  0.56401001    -0.42400
H733        H  0.35575628  0.51708534  0.56330786     0.13800
H734        H  0.25162722  0.54806468  0.60335808     0.10200
H735        H  0.25354269  0.96107853  0.61511502     0.11300
H736        H  0.21502954  0.98149959  0.49557805     0.17100
C737        C  0.90903692  0.70876155  0.05549823    -0.01100
C738        C  0.94111015  0.70667729  0.05002254     0.07500
C739        C  0.95351528  0.67887299  0.03849390    -0.07100
C740        C  0.93431858  0.65374744  0.03143498     0.04900
C741        C  0.90195041  0.65631067  0.03564532    -0.14300
C742        C  0.88996668  0.68393609  0.04830270    -0.07600
C743        C  0.96162695  0.73352434  0.05596564     0.05900
C744        C  0.96463524  0.74516374  0.08970253    -0.08700
C745        C  0.98314648  0.77063917  0.09638165     0.00900
C746        C  0.99909506  0.78537084  0.06890694     0.00700
C747        C  0.99516515  0.77433556  0.03491168    -0.12300
C748        C  0.97693426  0.74850129  0.02836990     0.01200
C749        C  0.98541765  0.78110026  0.13182916     0.40500
C750        C  0.97450608  0.73748429  0.99318919     0.37100
C751        C  0.89488274  0.73660277  0.06731382     0.36900
C752        C  0.94839397  0.62609180  0.01904105     0.37600
N753        N  0.98730759  0.78945177  0.16023767    -0.43200
N754        N  0.97258557  0.72837920  0.96509436    -0.43600
N755        N  0.95970855  0.60388435  0.00920998    -0.41000
N756        N  0.88353223  0.75887581  0.07687124    -0.42400
H757        H  0.86530453  0.68654309  0.05195468     0.13800
H758        H  0.97821775  0.67692063  0.03465384     0.10200
H759        H  0.95268036  0.73405949  0.11100820     0.11300
H760        H  0.00757846  0.78494718  0.01362507     0.17100
C761        C  0.46177887  0.76209615  0.02072725    -0.01100
C762        C  0.46161913  0.74871141  0.05419293     0.07500
C763        C  0.48222944  0.76005632  0.07918503    -0.07100
C764        C  0.50276870  0.78388787  0.07143905     0.04900
C765        C  0.50371819  0.79670712  0.03757851    -0.14300
C766        C  0.48260548  0.78565400  0.01276540    -0.07600
C767        C  0.43973478  0.72348521  0.06384157     0.05900
C768        C  0.43921174  0.69635694  0.04441368    -0.08700
C769        C  0.41784589  0.67300548  0.05178546     0.00900
C770        C  0.39608112  0.67665319  0.07887060     0.00700
C771        C  0.39772777  0.70318387  0.09920029    -0.12300
C772        C  0.41915665  0.72622135  0.09215512     0.01200
C773        C  0.41853371  0.64590550  0.03080908     0.40500
C774        C  0.41878897  0.75284074  0.11400270     0.37100
C775        C  0.44068513  0.75216427  0.99404479     0.36900
C776        C  0.52272451  0.79433444  0.09889700     0.37600
N777        N  0.41919957  0.62405840  0.01417013    -0.43200
N778        N  0.41863379  0.77396051  0.13183465    -0.43600
N779        N  0.53856517  0.80270638  0.12107540    -0.41000
N780        N  0.42385035  0.74407949  0.97266188    -0.42400
H781        H  0.48278886  0.79491636  0.98661884     0.13800
H782        H  0.48249868  0.75001594  0.10496246     0.10200
H783        H  0.45543986  0.69348626  0.02325874     0.11300
H784        H  0.38174786  0.70635123  0.12055610     0.17100
C785        C  0.73955130  0.48806486  0.05227642    -0.01100
C786        C  0.73018126  0.46980275  0.02420285     0.07500
C787        C  0.75034732  0.97637796  0.99344222    -0.07100
C788        C  0.77378144  0.48909466  0.99018922     0.04900
C789        C  0.78206568  0.50918014  0.01745462    -0.14300
C790        C  0.76511609  0.50755814  0.04873217    -0.07600
C791        C  0.70641851  0.95484428  0.02758350     0.05900
C792        C  0.67775843  0.96598293  0.01609118    -0.08700
C793        C  0.65148400  0.94709703  0.01489138     0.00900
C794        C  0.65376690  0.91603844  0.02451096     0.00700
C795        C  0.68236516  0.90551376  0.03745090    -0.12300
C796        C  0.70831304  0.92457880  0.03928671     0.01200
C797        C  0.62287469  0.96012232  0.00275389     0.40500
C798        C  0.73699294  0.91250375  0.05254618     0.37100
C799        C  0.72307350  0.48729336  0.08487251     0.36900
C800        C  0.79074209  0.48788786  0.95787791     0.37600
N801        N  0.59995563  0.97079472  0.99323365    -0.43200
N802        N  0.76008264  0.90319483  0.06331576    -0.43600
N803        N  0.80429906  0.48680177  0.93196608    -0.41000
N804        N  0.70993801  0.48649984  0.11106653    -0.42400
H805        H  0.77105794  0.52238137  0.07012569     0.13800
H806        H  0.74217085  0.96320655  0.97154784     0.10200
H807        H  0.67082746  0.48543125  0.01131778     0.11300
H808        H  0.68477153  0.88200984  0.04549371     0.17100
C809        C  0.67888423  0.73145343  0.98092847    -0.01100
C810        C  0.67770826  0.71210197  0.01013840     0.07500
C811        C  0.65751558  0.71853641  0.03756647    -0.07100
C812        C  0.63841365  0.74411025  0.03625773     0.04900
C813        C  0.63959767  0.76359066  0.00693065    -0.14300
C814        C  0.65965033  0.75672994  0.97938529    -0.07600
C815        C  0.69981007  0.68696929  0.01371895     0.05900
C816        C  0.72394940  0.69039474  0.03752333    -0.08700
C817        C  0.74934704  0.67091183  0.03672906     0.00900
C818        C  0.75012742  0.64703820  0.01229078     0.00700
C819        C  0.72494746  0.64253536  0.99003277    -0.12300
C820        C  0.69988696  0.66236841  0.99043353     0.01200
C821        C  0.77543726  0.67809380  0.05854277     0.40500
C822        C  0.67554149  0.65818238  0.96529140     0.37100
C823        C  0.70074960  0.72665369  0.95306474     0.36900
C824        C  0.61775332  0.74947673  0.06508962     0.37600
N825        N  0.79631088  0.68434860  0.07583280    -0.43200
N826        N  0.65632212  0.65496142  0.94477643    -0.43600
N827        N  0.60121559  0.75374021  0.08821927    -0.41000
N828        N  0.71832837  0.72262493  0.93087739    -0.42400
H829        H  0.66103639  0.77168982  0.95689808     0.13800
H830        H  0.65701558  0.70370463  0.06022463     0.10200
H831        H  0.72399325  0.70972021  0.05498901     0.11300
H832        H  0.72539809  0.62414212  0.97130486     0.17100
C833        C  0.98958831  0.54771215  0.51999277    -0.01100
C834        C  0.00852898  0.53521893  0.54622033     0.07500
C835        C  0.00607983  0.54648793  0.58011484    -0.07100
C836        C  0.98439969  0.56905565  0.58846445     0.04900
C837        C  0.96446521  0.58096018  0.56248853    -0.14300
C838        C  0.96793397  0.57042043  0.52818904    -0.07600
C839        C  0.03379118  0.00840458  0.53849150     0.05900
C840        C  0.06151649  0.01589044  0.52197069    -0.08700
C841        C  0.08338451  0.99351066  0.51388717     0.00900
C842        C  0.07743584  0.96239693  0.52169765     0.00700
C843        C  0.04993078  0.95514758  0.53935904    -0.12300
C844        C  0.02826262  0.97783540  0.54782795     0.01200
C845        C  0.11195426  0.00362326  0.49826393     0.40500
C846        C  0.00013834  0.96926374  0.56541304     0.37100
C847        C  0.99098434  0.53645873  0.48482391     0.36900
C848        C  0.98308112  0.57922918  0.62408134     0.37600
N849        N  0.13482729  0.01188785  0.48587380    -0.43200
N850        N  0.97753003  0.96258793  0.57953214    -0.43600
N851        N  0.98205750  0.58726152  0.65267262    -0.41000
N852        N  0.99210610  0.52725071  0.45671300    -0.42400
H853        H  0.95270255  0.57881534  0.50800878     0.13800
H854        H  0.02343484  0.03543531  0.59976906     0.10200
H855        H  0.06236713  0.54176394  0.51329684     0.11300
H856        H  0.04502983  0.93166949  0.54601881     0.17100
C857        C  0.88650036  0.59820745  0.83552025    -0.01100
C858        C  0.86326949  0.60781437  0.81238780     0.07500
C859        C  0.83386813  0.61469807  0.82518330    -0.07100
C860        C  0.82717994  0.61220050  0.86060862     0.04900
C861        C  0.85037809  0.60243263  0.88414075    -0.14300
C862        C  0.87992030  0.59555785  0.87107911    -0.07600
C863        C  0.86831770  0.60968343  0.77441804     0.05900
C864        C  0.85390173  0.58817738  0.75326094    -0.08700
C865        C  0.85556831  0.59029616  0.71704542     0.00900
C866        C  0.87178522  0.61473890  0.70127743     0.00700
C867        C  0.88674644  0.63593207  0.72277645    -0.12300
C868        C  0.88511597  0.63357652  0.75905294     0.01200
C869        C  0.84036378  0.56690638  0.69715672     0.40500
C870        C  0.90003453  0.65638677  0.78000548     0.37100
C871        C  0.91696413  0.59035499  0.82324024     0.36900
C872        C  0.79604782  0.61913147  0.87151444     0.37600
N873        N  0.82816641  0.54804414  0.68143093    -0.43200
N874        N  0.91202917  0.67460383  0.79686368    -0.43600
N875        N  0.77104631  0.62473274  0.87999123    -0.41000
N876        N  0.94139658  0.58407667  0.81341208    -0.42400
H877        H  0.89798262  0.58809293  0.88865165     0.13800
H878        H  0.81594828  0.62188829  0.80723091     0.10200
H879        H  0.84098189  0.56978533  0.76520546     0.11300
H880        H  0.89938313  0.65471603  0.71130093     0.17100
C881        C  0.51330561  0.96413476  0.54062756    -0.01100
C882        C  0.52327804  0.99463007  0.53745482     0.07500
C883        C  0.55457323  0.00125650  0.54207391    -0.07100
C884        C  0.57582761  0.97831821  0.55024992     0.04900
C885        C  0.56580673  0.94783322  0.55467611    -0.14300
C886        C  0.53454696  0.94105500  0.54905918    -0.07600
C887        C  0.50321528  0.51684208  0.52775916     0.05900
C888        C  0.49841817  0.53982819  0.55248842    -0.08700
C889        C  0.47648827  0.56294659  0.54693891     0.00900
C890        C  0.45880325  0.56332232  0.51608070     0.00700
C891        C  0.46505294  0.54123644  0.49054857    -0.12300
C892        C  0.48713349  0.51838495  0.49599369     0.01200
C893        C  0.47134211  0.58474908  0.57425872     0.40500
C894        C  0.49295567  0.49672424  0.46862901     0.37100
C895        C  0.48121535  0.95617886  0.53646454     0.36900
C896        C  0.60795476  0.98677232  0.55308106     0.37600
N897        N  0.46719712  0.60221874  0.59618709    -0.43200
N898        N  0.49777135  0.47926821  0.44685490    -0.43600
N899        N  0.63367715  0.99357881  0.55521849    -0.41000
N900        N  0.45548796  0.94987257  0.53296257    -0.42400
H901        H  0.52648523  0.91790791  0.55241718     0.13800
H902        H  0.56417711  0.52142966  0.53746425     0.10200
H903        H  0.50779542  0.04108128  0.57946419     0.11300
H904        H  0.45211455  0.54137086  0.46646777     0.17100
C905        C  0.57158298  0.85510765  0.74894899    -0.01100
C906        C  0.59166826  0.86526444  0.77522545     0.07500
C907        C  0.62014967  0.87795810  0.76592220    -0.07100
C908        C  0.62873542  0.88103943  0.73103386     0.04900
C909        C  0.60850310  0.87113013  0.70441928    -0.14300
C910        C  0.58007750  0.85809877  0.71393193    -0.07600
C911        C  0.58403897  0.86219383  0.81270503     0.05900
C912        C  0.58145175  0.83305539  0.82725998    -0.08700
C913        C  0.57771986  0.82916439  0.86314605     0.00900
C914        C  0.57676446  0.85484712  0.88517813     0.00700
C915        C  0.57746583  0.88399963  0.87030834    -0.12300
C916        C  0.58130851  0.88783602  0.83441286     0.01200
C917        C  0.57480093  0.79858835  0.87658563     0.40500
C918        C  0.58302118  0.91829516  0.82048871     0.37100
C919        C  0.54189154  0.84215923  0.75732668     0.36900
C920        C  0.65873201  0.89389882  0.72370788     0.37600
N921        N  0.57233809  0.77411450  0.88736198    -0.43200
N922        N  0.58449574  0.94270149  0.80931211    -0.43600
N923        N  0.68276855  0.90421122  0.71792090    -0.41000
N924        N  0.51811709  0.83175987  0.76414809    -0.42400
H925        H  0.56423173  0.85050090  0.69397514     0.13800
H926        H  0.63587249  0.88530844  0.78613890     0.10200
H927        H  0.58324514  0.81327925  0.81062950     0.11300
H928        H  0.57651873  0.90385369  0.88689547     0.17100
C929        C  0.74880271  0.80039818  0.55435240    -0.01100
C930        C  0.74473265  0.76864286  0.55612106     0.07500
C931        C  0.71460556  0.75705708  0.56015485    -0.07100
C932        C  0.68910657  0.77663722  0.56438432     0.04900
C933        C  0.69369872  0.80833758  0.56490440    -0.09500
C934        C  0.72352143  0.81978201  0.55891619    -0.07600
C935        C  0.77183378  0.74754486  0.55713911     0.05900
C936        C  0.79325928  0.75032276  0.58432094    -0.08700
C937        C  0.81813330  0.73005241  0.58782461     0.00900
C938        C  0.82211075  0.70609366  0.56368105     0.00700
C939        C  0.80104606  0.70401573  0.53583009    -0.12300
C940        C  0.77620077  0.72438115  0.53242358     0.01200
C941        C  0.83820444  0.73386165  0.61740930     0.40500
C942        C  0.75561056  0.72120193  0.50319428     0.37100
C943        C  0.77880423  0.81372483  0.54840633     0.36900
C944        C  0.65904342  0.76367547  0.57062245     0.37600
N945        N  0.85411211  0.73707433  0.64125732    -0.43200
N946        N  0.73914359  0.71872612  0.47971629    -0.43600
N947        N  0.63498017  0.75314484  0.57564520    -0.41000
N948        N  0.80278585  0.82451815  0.54362104    -0.42400
H949        H  0.72724793  0.84415394  0.55880779     0.13800
H950        H  0.71120120  0.73269542  0.56159707     0.10200
H951        H  0.79003461  0.76800915  0.60352024     0.11300
H952        H  0.80346662  0.68592967  0.51700153     0.17100
C953        C  0.75476102  0.96410570  0.57977520    -0.01100
C954        C  0.75547222  0.97949349  0.54766500     0.07500
C955        C  0.73336802  0.97319205  0.52223552    -0.07100
C956        C  0.70951772  0.95267941  0.52913728     0.04900
C957        C  0.70770422  0.93860844  0.56221369    -0.14300
C958        C  0.73093140  0.94388603  0.58680624    -0.07600
C959        C  0.77558079  0.50602873  0.54334605     0.05900
C960        C  0.80747477  0.00071749  0.53783439    -0.08700
C961        C  0.82794572  0.52541123  0.54292865     0.00900
C962        C  0.81669489  0.55410240  0.55342840     0.00700
C963        C  0.78481962  0.55891287  0.55639518    -0.12300
C964        C  0.76419494  0.53514290  0.55130123     0.01200
C965        C  0.86057770  0.51908209  0.54022672     0.40500
C966        C  0.73166496  0.54046284  0.55706165     0.37100
C967        C  0.77714197  0.97022599  0.60669025     0.36900
C968        C  0.68635755  0.94814818  0.50271276     0.37600
N969        N  0.88672451  0.51397219  0.53816218    -0.43200
N970        N  0.70558793  0.54453574  0.56166024    -0.43600
N971        N  0.66786116  0.94457541  0.48144165    -0.41000
N972        N  0.79510696  0.97523747  0.62814849    -0.42400
H973        H  0.73004671  0.93278951  0.61205638     0.13800
H974        H  0.73430753  0.48446842  0.49772710     0.10200
H975        H  0.81568380  0.97794976  0.53201498     0.11300
H976        H  0.77606624  0.58103511  0.56411499     0.17100
loop_ 
_geom_bond_atom_site_label_1 
_geom_bond_atom_site_label_2 
_geom_bond_distance 
_geom_bond_site_symmetry_2 
_ccdc_geom_bond_type 
O1            C4   1.264       .  A
O1           Cd6   2.420       .  S
C2           O11   1.267       .  A
C2            O7   1.270       .  A
C2          C469   1.468       .  S
O3            C9   1.276       .  A
O3           Cd6   2.547       .  S
C4           O12   1.270       .  A
C4          C421   1.486       .  S
C5           O10   1.276       .  A
C5            O8   1.261       .  A
C5          C397   1.490       .  S
Cd6          O13   2.390       .  S
Cd6          O12   2.481       .  S
Cd6          O11   2.417       .  S
Cd6           O7   2.395       .  S
Cd6          O10   2.539       .  S
Cd6           O8   2.397       .  S
C9           O13   1.261       .  A
C9          C445   1.484       .  S
O14          C17   1.265       .  A
O14         Cd19   2.410       .  S
C15          O24   1.270       .  A
C15          O20   1.265       .  A
C15         C378   1.487       .  S
O16          C22   1.270       .  A
O16         Cd19   2.532       .  S
C17          O25   1.264       .  A
C17         C474   1.464       .  S
C18          O23   1.267       .  A
C18          O21   1.263       .  A
C18         C450   1.499       .  S
Cd19         O26   2.443       .  S
Cd19         O25   2.435       .  S
Cd19         O24   2.464       .  S
Cd19         O20   2.430       .  S
Cd19         O23   2.505       .  S
Cd19         O21   2.476       .  S
C22          O26   1.261       .  A
C22         C349   1.496       .  S
O27          C30   1.266   1_556  A
O27         Cd32   2.408       .  S
C28          O37   1.271       .  A
C28          O33   1.264       .  A
C28         C426   1.479       .  S
O29          C35   1.266       .  A
O29         Cd32   2.508   1_554  S
C30          O38   1.266       .  A
C30         C325   1.470       .  S
C31          O36   1.272       .  A
C31          O34   1.260       .  A
C31         C306   1.506       .  S
Cd32         O39   2.499       .  S
Cd32         O38   2.426   1_556  S
Cd32         O37   2.485       .  S
Cd32         O33   2.412       .  S
Cd32         O36   2.571   1_556  S
Cd32         O34   2.457   1_556  S
C35          O39   1.264   1_554  A
C35         C277   1.504       .  S
O40          C43   1.266   1_556  A
O40         Cd45   2.403       .  S
C41          O50   1.270       .  A
C41          O46   1.264       .  A
C41         C373   1.486       .  S
O42          C48   1.273       .  A
O42         Cd45   2.553   1_554  S
C43          O51   1.266       .  A
C43         C330   1.464       .  S
C44          O49   1.263   1_554  A
C44          O47   1.267       .  A
C44         C301   1.502       .  S
Cd45         O52   2.414   1_556  S
Cd45         O51   2.433   1_556  S
Cd45         O50   2.479       .  S
Cd45         O46   2.421       .  S
Cd45         O49   2.475       .  S
Cd45         O47   2.517   1_556  S
C48          O52   1.260       .  A
C48         C253   1.497       .  S
O53          C56   1.266       .  A
O53         Cd58   2.380       .  S
C54          O63   1.271       .  A
C54          O59   1.266       .  A
C54         C181   1.487       .  S
O55          C61   1.277       .  A
O55         Cd58   2.534       .  S
C56          O64   1.266       .  A
C56         C229   1.459       .  S
C57          O62   1.262       .  A
C57          O60   1.276       .  A
C57         C402   1.493       .  S
Cd58         O65   2.408       .  S
Cd58         O64   2.473       .  S
Cd58         O63   2.465       .  S
Cd58         O59   2.420       .  S
Cd58         O62   2.411       .  S
Cd58         O60   2.529       .  S
C61          O65   1.264       .  A
C61         C205   1.500       .  S
O66          C69   1.273       .  A
O66         Cd71   2.420       .  S
C67          O76   1.271       .  A
C67          O72   1.268       .  A
C67         C157   1.494       .  S
O68          C74   1.279       .  A
O68         Cd71   2.528       .  S
C69          O77   1.267       .  A
C69         C234   1.477       .  S
C70          O75   1.279       .  A
C70          O73   1.264       .  A
C70         C354   1.501       .  S
Cd71         O78   2.395       .  S
Cd71         O77   2.411       .  S
Cd71         O76   2.479       .  S
Cd71         O72   2.433       .  S
Cd71         O75   2.540       .  S
Cd71         O73   2.393       .  S
C74          O78   1.265       .  A
C74         C210   1.498       .  S
O79          C82   1.269       .  A
O79         Cd84   2.452       .  S
C80          O89   1.268       .  A
C80          O85   1.271       .  A
C80         C133   1.467       .  S
O81          C87   1.278       .  A
O81         Cd84   2.541       .  S
C82          O90   1.269       .  A
C82         C186   1.489       .  S
C83          O88   1.277       .  A
C83          O86   1.265       .  A
C83         C109   1.494       .  S
Cd84         O91   2.392       .  S
Cd84         O90   2.440       .  S
Cd84         O89   2.432       .  S
Cd84         O85   2.392       .  S
Cd84         O88   2.533       .  S
Cd84         O86   2.427       .  S
C87          O91   1.264       .  A
C87         C282   1.500       .  S
O92          C95   1.270       .  A
O92         Cd97   2.456       .  S
C93         O102   1.266       .  A
C93          O98   1.269       .  A
C93         C138   1.468       .  S
O94         C100   1.261       .  A
O94         Cd97   2.425       .  S
C95         O103   1.268       .  A
C95         C162   1.492       .  S
C96         O101   1.263       .  A
C96          O99   1.275       .  A
C96         C114   1.491       .  S
Cd97        O104   2.541       .  S
Cd97        O103   2.454       .  S
Cd97        O102   2.440       .  S
Cd97         O98   2.414       .  S
Cd97        O101   2.424       .  S
Cd97         O99   2.531       .  S
C100        O104   1.273       .  A
C100        C258   1.494       .  S
C105        C119   1.443       .  S
C105        C594   1.418       .  A
C105        C598   1.409       .  A
C106        C599   1.503       .  S
C106        C107   1.403   1_565  A
C106        C593   1.418       .  A
C107        C108   1.403       .  A
C107        H126   1.086       .  S
C108        C120   1.445       .  S
C108        C109   1.418       .  A
C109        C110   1.404       .  A
C110        C593   1.409   1_545  A
C110        H125   1.086       .  S
C111        C594   1.503       .  S
C111        C112   1.409       .  A
C111        C116   1.414       .  A
C112        C113   1.407       .  A
C112        H127   1.084       .  S
C113        C117   1.444       .  S
C113        C114   1.413       .  A
C114        C115   1.407       .  A
C115        C116   1.404       .  A
C115        H128   1.085       .  S
C116        C606   1.444       .  S
C117        N121   1.157       .  T
C118        C604   1.444       .  S
C118        N122   1.157       .  T
C119        N124   1.157       .  T
C120        N123   1.157       .  T
C129        C143   1.446       .  S
C129        C130   1.411       .  A
C129        C134   1.390       .  A
C130        C135   1.473       .  S
C130        C131   1.402       .  A
C131        C132   1.401       .  A
C131        H150   1.084   1_554  S
C132        C144   1.444   1_554  S
C132        C133   1.412       .  A
C133        C134   1.399       .  A
C134        H149   1.085       .  S
C135        C136   1.402       .  A
C135        C140   1.410       .  A
C136        C137   1.399       .  A
C136        H151   1.086   1_554  S
C137        C141   1.444   1_554  S
C137        C138   1.412       .  A
C138        C139   1.400       .  A
C139        C140   1.393       .  A
C139        H152   1.087       .  S
C140        C142   1.445       .  S
C141        N145   1.157       .  T
C142        N146   1.157       .  T
C143        N148   1.157       .  T
C144        N147   1.157       .  T
C153        C167   1.444       .  S
C153        C154   1.408       .  A
C153        C158   1.404       .  A
C154        C159   1.483       .  S
C154        C155   1.398       .  A
C155        C156   1.400       .  A
C155        H174   1.085       .  S
C156        C168   1.444       .  S
C156        C157   1.420       .  A
C157        C158   1.410       .  A
C158        H173   1.084       .  S
C159        C160   1.400       .  A
C159        C164   1.407       .  A
C160        C161   1.403       .  A
C160        H175   1.084       .  S
C161        C165   1.444       .  S
C161        C162   1.420       .  A
C162        C163   1.408       .  A
C163        C164   1.401       .  A
C163        H176   1.084       .  S
C164        C166   1.444       .  S
C165        N169   1.157       .  T
C166        N170   1.157       .  T
C167        N172   1.157       .  T
C168        N171   1.157       .  T
C177        C191   1.444       .  S
C177        C178   1.408       .  A
C177        C182   1.401       .  A
C178        C183   1.479       .  S
C178        C179   1.398       .  A
C179        C180   1.398       .  A
C179        H198   1.085       .  S
C180        C192   1.444       .  S
C180        C181   1.420       .  A
C181        C182   1.408       .  A
C182        H197   1.085       .  S
C183        C184   1.399       .  A
C183        C188   1.407       .  A
C184        C185   1.400       .  A
C184        H199   1.085       .  S
C185        C189   1.444       .  S
C185        C186   1.419       .  A
C186        C187   1.409       .  A
C187        C188   1.400       .  A
C187        H200   1.084       .  S
C188        C190   1.445       .  S
C189        N193   1.157       .  T
C190        N194   1.157       .  T
C191        N196   1.157       .  T
C192        N195   1.157       .  T
C201        C215   1.445       .  S
C201        C202   1.409       .  A
C201        C206   1.401       .  A
C202        C207   1.498       .  S
C202        C203   1.408       .  A
C203        C204   1.409       .  A
C203        H222   1.083       .  S
C204        C216   1.442       .  S
C204        C205   1.415       .  A
C205        C206   1.412       .  A
C206        H221   1.083       .  S
C207        C208   1.409       .  A
C207        C212   1.410       .  A
C208        C209   1.410       .  A
C208        H223   1.083       .  S
C209        C213   1.443       .  S
C209        C210   1.415       .  A
C210        C211   1.410       .  A
C211        C212   1.400       .  A
C211        H224   1.083       .  S
C212        C214   1.445       .  S
C213        N217   1.157       .  T
C214        N218   1.157       .  T
C215        N220   1.157       .  T
C216        N219   1.157       .  T
C225        C239   1.444       .  S
C225        C714   1.408       .  A
C225        C718   1.394       .  A
C226        C719   1.472   1_545  S
C226        C227   1.403       .  A
C226        C713   1.408       .  A
C227        C228   1.398       .  A
C227        H246   1.085       .  S
C228        C240   1.444       .  S
C228        C229   1.408       .  A
C229        C230   1.399       .  A
C230        C713   1.394       .  A
C230        H245   1.085       .  S
C231        C714   1.472       .  S
C231        C232   1.398       .  A
C231        C236   1.411       .  A
C232        C233   1.401       .  A
C232        H247   1.086       .  S
C233        C237   1.444       .  S
C233        C234   1.419       .  A
C234        C235   1.401       .  A
C235        C236   1.391       .  A
C235        H248   1.087       .  S
C236        C726   1.446       .  S
C237        N241   1.157       .  T
C238        C724   1.446   1_545  S
C238        N242   1.157       .  T
C239        N244   1.157       .  T
C240        N243   1.157       .  T
C249        C263   1.444       .  S
C249        C250   1.409       .  A
C249        C254   1.400       .  A
C250        C255   1.498       .  S
C250        C251   1.409       .  A
C251        C252   1.411       .  A
C251        H270   1.084       .  S
C252        C264   1.443       .  S
C252        C253   1.416       .  A
C253        C254   1.409       .  A
C254        H269   1.084       .  S
C255        C256   1.403       .  A
C255        C260   1.413       .  A
C256        C257   1.404       .  A
C256        H271   1.084       .  S
C257        C261   1.444       .  S
C257        C258   1.417   1_655  A
C258        C259   1.408   1_455  A
C259        C260   1.409       .  A
C259        H272   1.084   1_655  S
C260        C262   1.444   1_554  S
C261        N265   1.157       .  T
C262        N266   1.157       .  T
C263        N268   1.157       .  T
C264        N267   1.157       .  T
C273        C287   1.444   1_554  S
C273        C274   1.413       .  A
C273        C278   1.408       .  A
C274        C279   1.505       .  S
C274        C275   1.406       .  A
C275        C276   1.407       .  A
C275        H294   1.084       .  S
C276        C288   1.443       .  S
C276        C277   1.418       .  A
C277        C278   1.411       .  A
C278        H293   1.084   1_554  S
C279        C280   1.411       .  A
C279        C284   1.411       .  A
C280        C281   1.412       .  A
C280        H295   1.083       .  S
C281        C285   1.443       .  S
C281        C282   1.414       .  A
C282        C283   1.410       .  A
C283        C284   1.400       .  A
C283        H296   1.083       .  S
C284        C286   1.444       .  S
C285        N289   1.157       .  T
C286        N290   1.157       .  T
C287        N292   1.157       .  T
C288        N291   1.157       .  T
C297        C311   1.443       .  S
C297        C298   1.410       .  A
C297        C302   1.408   1_565  A
C298        C791   1.497       .  S
C298        C787   1.402   1_554  A
C299        C786   1.402   1_556  A
C299        C788   1.406       .  A
C299        H318   1.084       .  S
C300        C312   1.444       .  S
C300        C301   1.422   1_566  A
C300        C787   1.406       .  A
C301        C302   1.410       .  A
C302        H317   1.084       .  S
C303        C786   1.497       .  S
C303        C304   1.406       .  A
C303        C308   1.406       .  A
C304        C305   1.412       .  A
C304        H807   1.084       .  S
C305        C309   1.443       .  S
C305        C306   1.418       .  A
C306        C307   1.413       .  A
C307        C308   1.405       .  A
C307        H320   1.083       .  S
C308        C310   1.444       .  S
C309        N313   1.157   1_554  T
C310        N314   1.157       .  T
C311        N316   1.157       .  T
C312        N315   1.158       .  T
H319        C792   1.084       .  S
C321        C335   1.446       .  S
C321        C322   1.408   1_556  A
C321        C326   1.391       .  A
C322        C327   1.468       .  S
C322        C323   1.399       .  A
C323        C324   1.397       .  A
C323        H342   1.087       .  S
C324        C336   1.444       .  S
C324        C325   1.415       .  A
C325        C326   1.403   1_554  A
C326        H341   1.087       .  S
C327        C328   1.400       .  A
C327        C332   1.408   1_554  A
C328        C329   1.395       .  A
C328        H343   1.086       .  S
C329        C333   1.445       .  S
C329        C330   1.412       .  A
C330        C331   1.402   1_554  A
C331        C332   1.392       .  A
C331        H344   1.086       .  S
C332        C334   1.444       .  S
C333        N337   1.157       .  T
C334        N338   1.157       .  T
C335        N340   1.157       .  T
C336        N339   1.157       .  T
C345        C359   1.444       .  S
C345        C346   1.411   1_655  A
C345        C350   1.407       .  A
C346        C839   1.491       .  S
C346        C347   1.400       .  A
C347        C348   1.404   1_455  A
C347        H854   1.084       .  S
C348        C360   1.444       .  S
C348        C349   1.420       .  A
C349        C350   1.408       .  A
C350        H365   1.083       .  S
C351        C834   1.492       .  S
C351        C352   1.397       .  A
C351        C356   1.412       .  A
C352        C353   1.401       .  A
C352        H855   1.086       .  S
C353        C357   1.445       .  S
C353        C354   1.425       .  A
C354        C355   1.408       .  A
C355        C356   1.409       .  A
C355        H368   1.085       .  S
C356        C358   1.443   1_455  S
C357        N361   1.158       .  T
C358        N362   1.157       .  T
C359        N364   1.157       .  T
C360        N363   1.157       .  T
H366        C835   1.084       .  S
H367        C840   1.086       .  S
C369        C383   1.443       .  S
C369        C370   1.408       .  A
C369        C374   1.402       .  A
C370        C375   1.479       .  S
C370        C371   1.398       .  A
C371        C372   1.397       .  A
C371        H390   1.086       .  S
C372        C384   1.445       .  S
C372        C373   1.419       .  A
C373        C374   1.408       .  A
C374        H389   1.085       .  S
C375        C376   1.399       .  A
C375        C380   1.407       .  A
C376        C377   1.398       .  A
C376        H391   1.085       .  S
C377        C381   1.445       .  S
C377        C378   1.419       .  A
C378        C379   1.408       .  A
C379        C380   1.401       .  A
C379        H392   1.084       .  S
C380        C382   1.444       .  S
C381        N385   1.158       .  T
C382        N386   1.157       .  T
C383        N388   1.157       .  T
C384        N387   1.158       .  T
C393        C407   1.444       .  S
C393        C394   1.416       .  A
C393        C398   1.407       .  A
C394        C887   1.494       .  S
C394        C395   1.400       .  A
C395        C396   1.401       .  A
C395        H902   1.085       .  S
C396        C408   1.446       .  S
C396        C397   1.420       .  A
C397        C398   1.404       .  A
C398        H413   1.084       .  S
C399        C882   1.493   1_545  S
C399        C400   1.406       .  A
C399        C404   1.408       .  A
C400        C401   1.407       .  A
C400        H903   1.083       .  S
C401        C405   1.443       .  S
C401        C402   1.414       .  A
C402        C403   1.410       .  A
C403        C404   1.402       .  A
C403        H416   1.083       .  S
C404        C406   1.444       .  S
C405        N409   1.157       .  T
C406        N410   1.157   1_545  T
C407        N412   1.157       .  T
C408        N411   1.158       .  T
H414        C883   1.085       .  S
H415        C888   1.083       .  S
C417        C431   1.443       .  S
C417        C418   1.409       .  A
C417        C422   1.401       .  A
C418        C423   1.485       .  S
C418        C419   1.401       .  A
C419        C420   1.399       .  A
C419        H438   1.085       .  S
C420        C432   1.445       .  S
C420        C421   1.419       .  A
C421        C422   1.406       .  A
C422        H437   1.085       .  S
C423        C424   1.402       .  A
C423        C428   1.411       .  A
C424        C425   1.399       .  A
C424        H439   1.085       .  S
C425        C429   1.445       .  S
C425        C426   1.416       .  A
C426        C427   1.403       .  A
C427        C428   1.400       .  A
C427        H440   1.085       .  S
C428        C430   1.443       .  S
C429        N433   1.157       .  T
C430        N434   1.157       .  T
C431        N436   1.157       .  T
C432        N435   1.158       .  T
C441        C455   1.444       .  S
C441        C442   1.410       .  A
C441        C446   1.399       .  A
C442        C447   1.496       .  S
C442        C443   1.410       .  A
C443        C444   1.410       .  A
C443        H462   1.084       .  S
C444        C456   1.442       .  S
C444        C445   1.410       .  A
C445        C446   1.406       .  A
C446        H461   1.085       .  S
C447        C448   1.405       .  A
C447        C452   1.409       .  A
C448        C449   1.404       .  A
C448        H463   1.084       .  S
C449        C453   1.444       .  S
C449        C450   1.418       .  A
C450        C451   1.412       .  A
C451        C452   1.406       .  A
C451        H464   1.083       .  S
C452        C454   1.444       .  S
C453        N457   1.157       .  T
C454        N458   1.157       .  T
C455        N460   1.157       .  T
C456        N459   1.157       .  T
C465        C479   1.446       .  S
C465        C466   1.407       .  A
C465        C470   1.390       .  A
C466        C959   1.465       .  S
C466        C467   1.399       .  A
C467        C468   1.397       .  A
C467        H974   1.086       .  S
C468        C480   1.444       .  S
C468        C469   1.415       .  A
C469        C470   1.402       .  A
C470        H485   1.086       .  S
C471        C954   1.465   1_545  S
C471        C476   1.407       .  A
C471        C960   1.399       .  A
C472        C959   1.399       .  A
C472        C961   1.397       .  A
C472        H487   1.087       .  S
C473        C477   1.444       .  S
C473        C474   1.413       .  A
C473        C960   1.396       .  A
C474        C475   1.402       .  A
C475        C476   1.391       .  A
C475        H488   1.087       .  S
C476        C478   1.446       .  S
C477        N481   1.157       .  T
C478        N482   1.157       .  T
C479        N484   1.157       .  T
C480        N483   1.157       .  T
H486        C955   1.086       .  S
O489        C492   1.263       .  A
O489       Cd494   2.418       .  S
C490        O499   1.268       .  A
C490        O495   1.270       .  A
C490        C957   1.468       .  S
O491        C497   1.276       .  A
O491       Cd494   2.550       .  S
C492        O500   1.270       .  A
C492        C909   1.487       .  S
C493        O498   1.276       .  A
C493        O496   1.261       .  A
C493        C885   1.490       .  S
Cd494       O501   2.388       .  S
Cd494       O500   2.484       .  S
Cd494       O499   2.420       .  S
Cd494       O495   2.392       .  S
Cd494       O498   2.539       .  S
Cd494       O496   2.396       .  S
C497        O501   1.261       .  A
C497        C933   1.484       .  S
O502        C505   1.265       .  A
O502       Cd507   2.412       .  S
C503        O512   1.270       .  A
C503        O508   1.265       .  A
C503        C866   1.487       .  S
O504        C510   1.270       .  A
O504       Cd507   2.528       .  S
C505        O513   1.264       .  A
C505        C962   1.465       .  S
C506        O511   1.267       .  A
C506        O509   1.263       .  A
C506        C938   1.500       .  S
Cd507       O514   2.445       .  S
Cd507       O513   2.438       .  S
Cd507       O512   2.465       .  S
Cd507       O508   2.425       .  S
Cd507       O511   2.509       .  S
Cd507       O509   2.475       .  S
C510        O514   1.261       .  A
C510        C837   1.496       .  S
O515        C518   1.266   1_556  A
O515       Cd520   2.406       .  S
C516        O525   1.271       .  A
C516        O521   1.264       .  A
C516        C914   1.480       .  S
O517        C523   1.267       .  A
O517       Cd520   2.514   1_554  S
C518        O526   1.266       .  A
C518        C813   1.470       .  S
C519        O524   1.272       .  A
C519        O522   1.261       .  A
C519        C794   1.505       .  S
Cd520       O527   2.496       .  S
Cd520       O526   2.426   1_556  S
Cd520       O525   2.485       .  S
Cd520       O521   2.415       .  S
Cd520       O524   2.568   1_556  S
Cd520       O522   2.463   1_556  S
C523        O527   1.264   1_554  A
C523        C765   1.505       .  S
O528        C531   1.267   1_556  A
O528       Cd533   2.406       .  S
C529        O538   1.270       .  A
C529        O534   1.264       .  A
C529        C861   1.485       .  S
O530        C536   1.273       .  A
O530       Cd533   2.557   1_554  S
C531        O539   1.266       .  A
C531        C818   1.465       .  S
C532        O537   1.262   1_554  A
C532        O535   1.267       .  A
C532        C789   1.502       .  S
Cd533       O540   2.413   1_556  S
Cd533       O539   2.432   1_556  S
Cd533       O538   2.475       .  S
Cd533       O534   2.423       .  S
Cd533       O537   2.476       .  S
Cd533       O535   2.518   1_556  S
C536        O540   1.260       .  A
C536        C741   1.498       .  S
O541        C544   1.267       .  A
O541       Cd546   2.381       .  S
C542        O551   1.271       .  A
C542        O547   1.267       .  A
C542        C669   1.487       .  S
O543        C549   1.277       .  A
O543       Cd546   2.536       .  S
C544        O552   1.267       .  A
C544        C717   1.459       .  S
C545        O550   1.263       .  A
C545        O548   1.276       .  A
C545        C890   1.493       .  S
Cd546       O553   2.406       .  S
Cd546       O552   2.469       .  S
Cd546       O551   2.462       .  S
Cd546       O547   2.421       .  S
Cd546       O550   2.412       .  S
Cd546       O548   2.527       .  S
C549        O553   1.264       .  A
C549        C693   1.500       .  S
O554        C557   1.273       .  A
O554       Cd559   2.420       .  S
C555        O564   1.271       .  A
C555        O560   1.268       .  A
C555        C645   1.494       .  S
O556        C562   1.278       .  A
O556       Cd559   2.529       .  S
C557        O565   1.267       .  A
C557        C722   1.477       .  S
C558        O563   1.279       .  A
C558        O561   1.264       .  A
C558        C842   1.499       .  S
Cd559       O566   2.395       .  S
Cd559       O565   2.410       .  S
Cd559       O564   2.482       .  S
Cd559       O560   2.434       .  S
Cd559       O563   2.535       .  S
Cd559       O561   2.394       .  S
C562        O566   1.265       .  A
C562        C698   1.498       .  S
O567        C570   1.270       .  A
O567       Cd572   2.455       .  S
C568        O577   1.269       .  A
C568        O573   1.272       .  A
C568        C621   1.467       .  S
O569        C575   1.279       .  A
O569       Cd572   2.534       .  S
C570        O578   1.269       .  A
C570        C674   1.489       .  S
C571        O576   1.277       .  A
C571        O574   1.265       .  A
C571        C597   1.494       .  S
Cd572       O579   2.394       .  S
Cd572       O578   2.435       .  S
Cd572       O577   2.434       .  S
Cd572       O573   2.390       .  S
Cd572       O576   2.530       .  S
Cd572       O574   2.424       .  S
C575        O579   1.265       .  A
C575        C770   1.499       .  S
O580        C583   1.270       .  A
O580       Cd585   2.452       .  S
C581        O590   1.266       .  A
C581        O586   1.270       .  A
C581        C626   1.468       .  S
O582        C588   1.262       .  A
O582       Cd585   2.426       .  S
C583        O591   1.268       .  A
C583        C650   1.492       .  S
C584        O589   1.263       .  A
C584        O587   1.275       .  A
C584        C602   1.492       .  S
Cd585       O592   2.541       .  S
Cd585       O591   2.455       .  S
Cd585       O590   2.438       .  S
Cd585       O586   2.416       .  S
Cd585       O589   2.424       .  S
Cd585       O587   2.534       .  S
C588        O592   1.274       .  A
C588        C746   1.494   1_455  S
C593        C607   1.443       .  S
C594        C595   1.403       .  A
C595        C596   1.403       .  A
C595        H614   1.086       .  S
C596        C608   1.445       .  S
C596        C597   1.418       .  A
C597        C598   1.404       .  A
C598        H613   1.086       .  S
C599        C600   1.409       .  A
C599        C604   1.413       .  A
C600        C601   1.408       .  A
C600        H615   1.084       .  S
C601        C605   1.443       .  S
C601        C602   1.413       .  A
C602        C603   1.408       .  A
C603        C604   1.405       .  A
C603        H616   1.085       .  S
C605        N609   1.157       .  T
C606        N610   1.157       .  T
C607        N612   1.157       .  T
C608        N611   1.157       .  T
C617        C631   1.445       .  S
C617        C618   1.411       .  A
C617        C622   1.390       .  A
C618        C623   1.474       .  S
C618        C619   1.403   1_554  A
C619        C620   1.402   1_556  A
C619        H638   1.084       .  S
C620        C632   1.444   1_554  S
C620        C621   1.412       .  A
C621        C622   1.399       .  A
C622        H637   1.085       .  S
C623        C624   1.402   1_554  A
C623        C628   1.411       .  A
C624        C625   1.399   1_556  A
C624        H639   1.086       .  S
C625        C629   1.444   1_554  S
C625        C626   1.413       .  A
C626        C627   1.400       .  A
C627        C628   1.393       .  A
C627        H640   1.087       .  S
C628        C630   1.445       .  S
C629        N633   1.157       .  T
C630        N634   1.157       .  T
C631        N636   1.157       .  T
C632        N635   1.157       .  T
C641        C655   1.444       .  S
C641        C642   1.408       .  A
C641        C646   1.405       .  A
C642        C647   1.484       .  S
C642        C643   1.399       .  A
C643        C644   1.400       .  A
C643        H662   1.085       .  S
C644        C656   1.444       .  S
C644        C645   1.420       .  A
C645        C646   1.410       .  A
C646        H661   1.084       .  S
C647        C648   1.401       .  A
C647        C652   1.408       .  A
C648        C649   1.403       .  A
C648        H663   1.084       .  S
C649        C653   1.444       .  S
C649        C650   1.419       .  A
C650        C651   1.408       .  A
C651        C652   1.400       .  A
C651        H664   1.084       .  S
C652        C654   1.444       .  S
C653        N657   1.157       .  T
C654        N658   1.157       .  T
C655        N660   1.157       .  T
C656        N659   1.157       .  T
C665        C679   1.444       .  S
C665        C666   1.408       .  A
C665        C670   1.401       .  A
C666        C671   1.480       .  S
C666        C667   1.398       .  A
C667        C668   1.398       .  A
C667        H686   1.085       .  S
C668        C680   1.444       .  S
C668        C669   1.419       .  A
C669        C670   1.408       .  A
C670        H685   1.085       .  S
C671        C672   1.399       .  A
C671        C676   1.407       .  A
C672        C673   1.400       .  A
C672        H687   1.085       .  S
C673        C677   1.444       .  S
C673        C674   1.419       .  A
C674        C675   1.409       .  A
C675        C676   1.400       .  A
C675        H688   1.084       .  S
C676        C678   1.445       .  S
C677        N681   1.157       .  T
C678        N682   1.157       .  T
C679        N684   1.157       .  T
C680        N683   1.157       .  T
C689        C703   1.445       .  S
C689        C690   1.409       .  A
C689        C694   1.401       .  A
C690        C695   1.498       .  S
C690        C691   1.408       .  A
C691        C692   1.410       .  A
C691        H710   1.083       .  S
C692        C704   1.442       .  S
C692        C693   1.415       .  A
C693        C694   1.412       .  A
C694        H709   1.083       .  S
C695        C696   1.409       .  A
C695        C700   1.409       .  A
C696        C697   1.410       .  A
C696        H711   1.083       .  S
C697        C701   1.443       .  S
C697        C698   1.415       .  A
C698        C699   1.410       .  A
C699        C700   1.400       .  A
C699        H712   1.083       .  S
C700        C702   1.445       .  S
C701        N705   1.157       .  T
C702        N706   1.157       .  T
C703        N708   1.157       .  T
C704        N707   1.157       .  T
C713        C727   1.444   1_545  S
C714        C715   1.403       .  A
C715        C716   1.399       .  A
C715        H734   1.085       .  S
C716        C728   1.444       .  S
C716        C717   1.408       .  A
C717        C718   1.399       .  A
C718        H733   1.085       .  S
C719        C720   1.398       .  A
C719        C724   1.411       .  A
C720        C721   1.401       .  A
C720        H735   1.087       .  S
C721        C725   1.444       .  S
C721        C722   1.420       .  A
C722        C723   1.402       .  A
C723        C724   1.391       .  A
C723        H736   1.087       .  S
C725        N729   1.157       .  T
C726        N730   1.157       .  T
C727        N732   1.157       .  T
C728        N731   1.157       .  T
C737        C751   1.444       .  S
C737        C738   1.408       .  A
C737        C742   1.399       .  A
C738        C743   1.498       .  S
C738        C739   1.409       .  A
C739        C740   1.412       .  A
C739        H758   1.084       .  S
C740        C752   1.443       .  S
C740        C741   1.416       .  A
C741        C742   1.410       .  A
C742        H757   1.084       .  S
C743        C744   1.403       .  A
C743        C748   1.412       .  A
C744        C745   1.404       .  A
C744        H759   1.084       .  S
C745        C749   1.444       .  S
C745        C746   1.417       .  A
C746        C747   1.407       .  A
C747        C748   1.409       .  A
C747        H760   1.084   1_655  S
C748        C750   1.443   1_554  S
C749        N753   1.157       .  T
C750        N754   1.157       .  T
C751        N756   1.157       .  T
C752        N755   1.157       .  T
C761        C775   1.445   1_554  S
C761        C762   1.414       .  A
C761        C766   1.408       .  A
C762        C767   1.506       .  S
C762        C763   1.406       .  A
C763        C764   1.407       .  A
C763        H782   1.084       .  S
C764        C776   1.443       .  S
C764        C765   1.418       .  A
C765        C766   1.411       .  A
C766        H781   1.084   1_554  S
C767        C768   1.411       .  A
C767        C772   1.412       .  A
C768        C769   1.412       .  A
C768        H783   1.083       .  S
C769        C773   1.443       .  S
C769        C770   1.414       .  A
C770        C771   1.410       .  A
C771        C772   1.401       .  A
C771        H784   1.083       .  S
C772        C774   1.444       .  S
C773        N777   1.157       .  T
C774        N778   1.157       .  T
C775        N780   1.157       .  T
C776        N779   1.157       .  T
C785        C799   1.442       .  S
C785        C786   1.409       .  A
C785        C790   1.408       .  A
C787        H806   1.084       .  S
C788        C800   1.444       .  S
C788        C789   1.421   1_556  A
C789        C790   1.410       .  A
C790        H805   1.084       .  S
C791        C792   1.406       .  A
C791        C796   1.407       .  A
C792        C793   1.411       .  A
C793        C797   1.443       .  S
C793        C794   1.418       .  A
C794        C795   1.413       .  A
C795        C796   1.406       .  A
C795        H808   1.083       .  S
C796        C798   1.444       .  S
C797        N801   1.157   1_554  T
C798        N802   1.157       .  T
C799        N804   1.157       .  T
C800        N803   1.158       .  T
C809        C823   1.446       .  S
C809        C810   1.408   1_556  A
C809        C814   1.390       .  A
C810        C815   1.468       .  S
C810        C811   1.399       .  A
C811        C812   1.397       .  A
C811        H830   1.087       .  S
C812        C824   1.444       .  S
C812        C813   1.415       .  A
C813        C814   1.403   1_554  A
C814        H829   1.087       .  S
C815        C816   1.400       .  A
C815        C820   1.408   1_554  A
C816        C817   1.395       .  A
C816        H831   1.086       .  S
C817        C821   1.445       .  S
C817        C818   1.413       .  A
C818        C819   1.402   1_554  A
C819        C820   1.392       .  A
C819        H832   1.086       .  S
C820        C822   1.444       .  S
C821        N825   1.157       .  T
C822        N826   1.157       .  T
C823        N828   1.157       .  T
C824        N827   1.157       .  T
C833        C847   1.444       .  S
C833        C834   1.411   1_655  A
C833        C838   1.406       .  A
C834        C835   1.401       .  A
C835        C836   1.404   1_455  A
C836        C848   1.444       .  S
C836        C837   1.420       .  A
C837        C838   1.408       .  A
C838        H853   1.083       .  S
C839        C840   1.398       .  A
C839        C844   1.412   1_545  A
C840        C841   1.401   1_545  A
C841        C845   1.445   1_565  S
C841        C842   1.424       .  A
C842        C843   1.407       .  A
C843        C844   1.409       .  A
C843        H856   1.085       .  S
C844        C846   1.443       .  S
C845        N849   1.158       .  T
C846        N850   1.157   1_455  T
C847        N852   1.157       .  T
C848        N851   1.157       .  T
C857        C871   1.443       .  S
C857        C858   1.408       .  A
C857        C862   1.401       .  A
C858        C863   1.479       .  S
C858        C859   1.398       .  A
C859        C860   1.397       .  A
C859        H878   1.086       .  S
C860        C872   1.445       .  S
C860        C861   1.419       .  A
C861        C862   1.408       .  A
C862        H877   1.085       .  S
C863        C864   1.399       .  A
C863        C868   1.407       .  A
C864        C865   1.398       .  A
C864        H879   1.085       .  S
C865        C869   1.445       .  S
C865        C866   1.419       .  A
C866        C867   1.408       .  A
C867        C868   1.401       .  A
C867        H880   1.084       .  S
C868        C870   1.444       .  S
C869        N873   1.158       .  T
C870        N874   1.157       .  T
C871        N876   1.157       .  T
C872        N875   1.157       .  T
C881        C895   1.444       .  S
C881        C882   1.415       .  A
C881        C886   1.407       .  A
C882        C883   1.399   1_565  A
C883        C884   1.401   1_545  A
C884        C896   1.446       .  S
C884        C885   1.420       .  A
C885        C886   1.404       .  A
C886        H901   1.084       .  S
C887        C888   1.406       .  A
C887        C892   1.409       .  A
C888        C889   1.407       .  A
C889        C893   1.443       .  S
C889        C890   1.414       .  A
C890        C891   1.410       .  A
C891        C892   1.403       .  A
C891        H904   1.083       .  S
C892        C894   1.445       .  S
C893        N897   1.157       .  T
C894        N898   1.157       .  T
C895        N900   1.157       .  T
C896        N899   1.158       .  T
C905        C919   1.443       .  S
C905        C906   1.409       .  A
C905        C910   1.402       .  A
C906        C911   1.484       .  S
C906        C907   1.401       .  A
C907        C908   1.398       .  A
C907        H926   1.085       .  S
C908        C920   1.445       .  S
C908        C909   1.419       .  A
C909        C910   1.407       .  A
C910        H925   1.085       .  S
C911        C912   1.402       .  A
C911        C916   1.411       .  A
C912        C913   1.400       .  A
C912        H927   1.085       .  S
C913        C917   1.445       .  S
C913        C914   1.416       .  A
C914        C915   1.403       .  A
C915        C916   1.400       .  A
C915        H928   1.085       .  S
C916        C918   1.443       .  S
C917        N921   1.157       .  T
C918        N922   1.157       .  T
C919        N924   1.157       .  T
C920        N923   1.158       .  T
C929        C943   1.444       .  S
C929        C930   1.410       .  A
C929        C934   1.399       .  A
C930        C935   1.497       .  S
C930        C931   1.410       .  A
C931        C932   1.410       .  A
C931        H950   1.083       .  S
C932        C944   1.442       .  S
C932        C933   1.410       .  A
C933        C934   1.406       .  A
C934        H949   1.085       .  S
C935        C936   1.405       .  A
C935        C940   1.409       .  A
C936        C937   1.405       .  A
C936        H951   1.084       .  S
C937        C941   1.444       .  S
C937        C938   1.418       .  A
C938        C939   1.412       .  A
C939        C940   1.406       .  A
C939        H952   1.083       .  S
C940        C942   1.444       .  S
C941        N945   1.157       .  T
C942        N946   1.157       .  T
C943        N948   1.157       .  T
C944        N947   1.157       .  T
C953        C967   1.446       .  S
C953        C954   1.407       .  A
C953        C958   1.389       .  A
C954        C955   1.399       .  A
C955        C956   1.397       .  A
C956        C968   1.444       .  S
C956        C957   1.415       .  A
C957        C958   1.402       .  A
C958        H973   1.086       .  S
C959        C964   1.407       .  A
C960        H975   1.087   1_545  S
C961        C965   1.444       .  S
C961        C962   1.413       .  A
C962        C963   1.402       .  A
C963        C964   1.391       .  A
C963        H976   1.087       .  S
C964        C966   1.446       .  S
C965        N969   1.157       .  T
C966        N970   1.157       .  T
C967        N972   1.157       .  T
C968        N971   1.157       .  T
