geometry optimzed in LAMMPS
_audit_creation_date              2020-12-01 
_audit_creation_method            'lammps2cif' 
_symmetry_space_group_name_H-M    'P1' 
_symmetry_Int_Tables_number       1 
_symmetry_cell_setting            triclinic 
loop_ 
_symmetry_equiv_pos_as_xyz 
  x,y,z 
_cell_length_a                    35.18184508 
_cell_length_b                    27.876234320511433 
_cell_length_c                    27.51986885449579 
_cell_angle_alpha                 90.06216942643812 
_cell_angle_beta                  90.02969838583836 
_cell_angle_gamma                 89.915577395139 
loop_ 
_atom_site_label 
_atom_site_type_symbol 
_atom_site_fract_x 
_atom_site_fract_y 
_atom_site_fract_z 
_atom_site_charge 
O1          O  0.18991274  0.28278146  0.02823856    -0.89000
C2          C  0.08681148  0.30335840  0.08929982     0.87000
Mg3        Mg  0.20161065  0.30131580  0.95454334     1.58100
O4          O  0.10781100  0.18370023  0.06213876    -0.88700
O5          O  0.19193775  0.21888923  0.07475168    -0.76100
C6          C  0.05596399  0.21246515  0.82969722     0.92100
O7          O  0.12805931  0.36366788  0.00599077    -0.75900
O8          O  0.08188507  0.24407884  0.82605997    -0.83400
Mg9        Mg  0.16277002  0.33680876  0.07153354     1.58000
C10         C  0.03258117  0.09581051  0.99513290     0.92000
O11         O  0.19806000  0.31641859  0.13924934    -0.81700
H12         H  0.14186111  0.12665702  0.06929816    -0.07000
C13         C  0.04412810  0.25411884  0.96117844     0.86900
O14         O  0.19336511  0.22268498  0.93165731    -0.76200
O15         O  0.11943002  0.28672069  0.08854718    -0.88900
O16         O  0.03486817  0.12324219  0.03201239    -0.81700
C17         C  0.04991073  0.20166188  0.16895005     0.92100
C18         C  0.19641787  0.28824789  0.17566294     0.92000
Mg19       Mg  0.08844437  0.16444945  0.93493671     1.58000
O20         O  0.05339124  0.18505837  0.86667056    -0.81700
O21         O  0.12241007  0.13690632  0.00066237    -0.75900
O22         O  0.08360756  0.21870321  0.16961532    -0.81700
O23         O  0.20638843  0.39295152  0.05282795    -0.83400
O24         O  0.16888083  0.28095208  0.83744382    -0.81800
C25         C  0.12428275  0.14804493  0.04542246     0.86400
O26         O  0.13224077  0.21415237  0.91834400    -0.88900
O27         O  0.06125046  0.21897840  0.97789065    -0.89000
O28         O  0.05912385  0.28165622  0.92976876    -0.76100
Mg29       Mg  0.13682970  0.21977073  0.11952339     1.58000
O30         O  0.03497806  0.18467381  0.13049032    -0.83400
H31         H  0.23485677  0.23881248  0.02990974    -0.07200
O32         O  0.14280428  0.31720966  0.94423690    -0.88700
H33         H  0.10762178  0.37324654  0.93770562    -0.07000
H34         H  0.16947385  0.16102843  0.90709529    -0.07200
C35         C  0.12582164  0.35236054  0.96127140     0.86400
C36         C  0.20691928  0.24711348  0.04398009     0.87000
C37         C  0.16499031  0.19786246  0.91801139     0.87000
H38         H  0.01602193  0.26242345  0.97468851    -0.07200
O39         O  0.05825996  0.27917708  0.07519716    -0.76200
Mg40       Mg  0.11499015  0.28050174  0.88629462     1.58000
H41         H  0.08263904  0.34008865  0.10075622    -0.07200
C42         C  0.21682138  0.40669569  0.01090026     0.92000
O43         O  0.21600989  0.31814603  0.87634268    -0.83400
C44         C  0.20212829  0.29926026  0.83822868     0.92100
O45         O  0.17150929  0.25531222  0.17907163    -0.83400
Mg46       Mg  0.04911800  0.20100478  0.05185107     1.58200
O47         O  0.21396416  0.37970340  0.97371849    -0.81700
O48         O  0.04471135  0.10879367  0.95365190    -0.83400
O49         O  0.43764641  0.78245909  0.02478767    -0.89000
C50         C  0.33245161  0.80337102  0.08101642     0.87000
Mg51       Mg  0.45185256  0.80020110  0.95167605     1.58100
O52         O  0.35495203  0.68392486  0.05467511    -0.88700
O53         O  0.43861659  0.71925995  0.07213710    -0.76100
C54         C  0.30981732  0.71163848  0.82016278     0.92100
O55         O  0.37702781  0.86410780  0.99920859    -0.75900
O56         O  0.33514669  0.74415320  0.81845534    -0.83400
Mg57       Mg  0.40934225  0.83695399  0.06653553     1.58000
C58         C  0.28189169  0.59520828  0.98497199     0.92000
O59         O  0.44251972  0.81661426  0.13623917    -0.81700
H60         H  0.38880185  0.62690245  0.06349876    -0.07000
C61         C  0.29381041  0.75410086  0.95160812     0.86900
O62         O  0.44358663  0.72173317  0.92829188    -0.76200
O63         O  0.36517620  0.78698543  0.08147455    -0.88900
O64         O  0.28402893  0.62217375  0.02227887    -0.81700
C65         C  0.29396890  0.70096203  0.15917516     0.92100
C66         C  0.43893096  0.78898354  0.17288256     0.92000
Mg67       Mg  0.33840396  0.66413477  0.92702777     1.58000
O68         O  0.30575158  0.68452478  0.85710551    -0.81700
O69         O  0.37066488  0.63653474  0.99417273    -0.75900
O70         O  0.32748790  0.71831183  0.16082723    -0.81700
O71         O  0.45370890  0.89284080  0.04979433    -0.83400
O72         O  0.42174932  0.78117627  0.83300331    -0.81800
C73         C  0.37175764  0.64812764  0.03885467     0.86400
O74         O  0.38282130  0.71378035  0.91244908    -0.88900
O75         O  0.31025100  0.71867298  0.96881182    -0.89000
O76         O  0.30980910  0.78171822  0.92107689    -0.76100
Mg77       Mg  0.38188945  0.72014980  0.11342404     1.58000
O78         O  0.27998685  0.68389094  0.12019421    -0.83400
H79         H  0.48285759  0.73916375  0.02943516    -0.07200
O80         O  0.39345909  0.81713676  0.93860515    -0.88700
H81         H  0.35929894  0.87384784  0.92972601    -0.07000
H82         H  0.42001126  0.66037408  0.90251043    -0.07200
C83         C  0.37635368  0.85271989  0.95444159     0.86400
C84         C  0.45440810  0.74724404  0.04185083     0.87000
C85         C  0.41545930  0.69721028  0.91337098     0.87000
H86         H  0.26541532  0.76260742  0.96396495    -0.07200
O87         O  0.30433191  0.77887501  0.06599222    -0.76200
Mg88       Mg  0.36675486  0.78046082  0.87984677     1.58000
H89         H  0.32782958  0.84007964  0.09226287    -0.07200
C90         C  0.46688156  0.90549258  0.00872493     0.92000
O91         O  0.46873407  0.81648038  0.87396633    -0.83400
C92         C  0.45527170  0.79862239  0.83506500     0.92100
O93         O  0.41371603  0.75631688  0.17457339    -0.83400
Mg94       Mg  0.29640094  0.70043694  0.04225058     1.58200
O95         O  0.46505996  0.87796588  0.97192545    -0.81700
O96         O  0.29350378  0.60883737  0.94350351    -0.83400
O97         O  0.43970351  0.21751198  0.47810493    -0.89000
C98         C  0.33629246  0.19711001  0.41642921     0.87000
Mg99       Mg  0.45180063  0.19820374  0.55162637     1.58100
O100        O  0.35697241  0.31653455  0.44498424    -0.88700
O101        O  0.44133160  0.28164429  0.43197019    -0.76100
C102        C  0.30645811  0.28679358  0.67694843     0.92100
O103        O  0.37837673  0.13563469  0.49947565    -0.75900
O104        O  0.33145845  0.25381732  0.67945464    -0.83400
Mg105      Mg  0.41254733  0.16371052  0.43417230     1.58000
C106        C  0.28068747  0.40320475  0.51250049     0.92000
O107        O  0.44747685  0.18461613  0.36660409    -0.81700
H108        H  0.39057608  0.37386794  0.43789933    -0.07000
C109        C  0.29372619  0.24490365  0.54498065     0.86900
O110        O  0.44310082  0.27642327  0.57617650    -0.76200
O111        O  0.36882662  0.21386591  0.41774436    -0.88900
O112        O  0.28374609  0.37624091  0.47532854    -0.81700
C113        C  0.29928793  0.30132163  0.33807756     0.92100
C114        C  0.44531203  0.21265375  0.33014697     0.92000
Mg115      Mg  0.33779189  0.33483985  0.57192161     1.58000
O116        O  0.30349159  0.31427449  0.64013960    -0.81700
O117        O  0.37144067  0.36310838  0.50654543    -0.75900
O118        O  0.33292170  0.28390969  0.33715670    -0.81700
O119        O  0.45639297  0.10743405  0.45173133    -0.83400
O120        O  0.41850088  0.21637375  0.66874436    -0.81800
C121        C  0.37323043  0.35224073  0.46174920     0.86400
O122        O  0.38181076  0.28470645  0.58808396    -0.88900
O123        O  0.31060509  0.28038565  0.52877933    -0.89000
O124        O  0.30898018  0.21690168  0.57581457    -0.76100
Mg125      Mg  0.38607183  0.28117031  0.38737987     1.58000
O126        O  0.28394946  0.31607071  0.37716268    -0.83400
H127        H  0.48441393  0.26168930  0.47667689    -0.07200
O128        O  0.39306530  0.18162178  0.56150906    -0.88700
H129        H  0.35869894  0.12491365  0.56791202    -0.07000
H130        H  0.41871758  0.33760410  0.60141822    -0.07200
C131        C  0.37642244  0.14635231  0.54434417     0.86400
C132        C  0.45649544  0.25335027  0.46258979     0.87000
C133        C  0.41449131  0.30100570  0.58960605     0.87000
H134        H  0.26564844  0.23664336  0.53138165    -0.07200
O135        O  0.30759680  0.22095963  0.43074756    -0.76200
Mg136      Mg  0.36479134  0.21780562  0.61936987     1.58000
H137        H  0.33234143  0.16053229  0.40437661    -0.07200
C138        C  0.46785847  0.09374543  0.49327443     0.92000
O139        O  0.46618036  0.18003713  0.62988534    -0.83400
C140        C  0.45166229  0.19763539  0.66829595     0.92100
O141        O  0.42051450  0.24590927  0.32749941    -0.83400
Mg142      Mg  0.29832615  0.29885846  0.45511995     1.58200
O143        O  0.46513228  0.12055570  0.53055436    -0.81700
O144        O  0.29347529  0.39071830  0.55382208    -0.83400
O145        O  0.18817551  0.71590396  0.46854164    -0.89000
C146        C  0.08283055  0.69389762  0.41369810     0.87000
Mg147      Mg  0.20249713  0.69900423  0.54202910     1.58100
O148        O  0.10488932  0.81367576  0.43837055    -0.88700
O149        O  0.18857048  0.77847532  0.42029258    -0.76100
C150        C  0.05948968  0.78762169  0.67300579     0.92100
O151        O  0.12827309  0.63377827  0.49502400    -0.75900
O152        O  0.08439091  0.75444741  0.67470696    -0.83400
Mg153      Mg  0.16016105  0.66069260  0.42743594     1.58000
C154        C  0.03207580  0.90319625  0.50771404     0.92000
O155        O  0.19280452  0.68065943  0.35721170    -0.81700
H156        H  0.13901966  0.87023020  0.42919108    -0.07000
C157        C  0.04403037  0.74450996  0.54194623     0.86900
O158        O  0.19374606  0.77742201  0.56503238    -0.76200
O159        O  0.11551834  0.71023572  0.41235092    -0.88900
O160        O  0.03365478  0.87568953  0.47083012    -0.81700
C161        C  0.04322396  0.79586623  0.33489169     0.92100
C162        C  0.18889583  0.70795226  0.32033098     0.92000
Mg163      Mg  0.08882850  0.83459245  0.56617260     1.58000
O164        O  0.05601111  0.81520922  0.63630742    -0.81700
O165        O  0.12107477  0.86112383  0.49863594    -0.75900
O166        O  0.07649760  0.77760114  0.33274507    -0.81700
O167        O  0.20516366  0.60537720  0.44474803    -0.83400
O168        O  0.17140121  0.71721642  0.66071810    -0.81800
C169        C  0.12193714  0.84932536  0.45399245     0.86400
O170        O  0.13299611  0.78484782  0.58133117    -0.88900
O171        O  0.06047843  0.77989227  0.52484608    -0.89000
O172        O  0.06007432  0.71666152  0.57224501    -0.76100
Mg173      Mg  0.13152210  0.77684949  0.37954196     1.58000
O174        O  0.02987334  0.81374063  0.37381462    -0.83400
H175        H  0.23314806  0.75934068  0.46295382    -0.07200
O176        O  0.14411006  0.68161095  0.55513605    -0.88700
H177        H  0.11062624  0.62448913  0.56455711    -0.07000
H178        H  0.16990006  0.83842433  0.59138438    -0.07200
C179        C  0.12743662  0.64561695  0.53965333     0.86400
C180        C  0.20466273  0.75097963  0.45088014     0.87000
C181        C  0.16554726  0.80159293  0.58040319     0.87000
H182        H  0.01564471  0.73614137  0.52952247    -0.07200
O183        O  0.05479559  0.71871451  0.42863737    -0.76200
Mg184      Mg  0.11678517  0.71810882  0.61365639     1.58000
H185        H  0.07815084  0.65700245  0.40319370    -0.07200
C186        C  0.21886788  0.59363294  0.48583120     0.92000
O187        O  0.21940304  0.68379108  0.61991019    -0.83400
C188        C  0.20525133  0.70079535  0.65880464     0.92100
O189        O  0.16338484  0.74034854  0.31833558    -0.83400
Mg190      Mg  0.04648193  0.79743893  0.45147786     1.58200
O191        O  0.21655463  0.62115794  0.52269102    -0.81700
O192        O  0.04448524  0.89025942  0.54908336    -0.83400
C193        C  0.48460578  0.04524731  0.49805011    -0.06800
C194        C  0.50266034  0.02484545  0.45747097    -0.17900
C195        C  0.01862473  0.97895511  0.45944608     0.10400
C196        C  0.01565449  0.95174422  0.50270052    -0.06700
C197        C  0.99715581  0.97186683  0.54300605    -0.17900
C198        C  0.48173526  0.01797611  0.54123817     0.10400
S199        S  0.04385074  0.95858266  0.40623246    -0.32900
S200        S  0.45662019  0.03844354  0.59429561    -0.32900
H201        H  0.48459479  0.07285816  0.60511079     0.28500
H202        H  0.07520171  0.94093456  0.43250928     0.28400
H203        H  0.50519849  0.04526844  0.42413848     0.19000
H204        H  0.99433103  0.95130372  0.57621879     0.19000
C205        C  0.23641881  0.54580132  0.49208261    -0.06800
C206        C  0.23199234  0.52273333  0.53711721    -0.17900
C207        C  0.24479406  0.47583725  0.54454173     0.10400
C208        C  0.26337261  0.45122409  0.50637220    -0.06700
C209        C  0.26787536  0.47436526  0.46135332    -0.17900
C210        C  0.25519592  0.52133363  0.45400851     0.10400
S211        S  0.23469708  0.44899188  0.60271521    -0.32900
S212        S  0.26588016  0.54861499  0.39620937    -0.32900
H213        H  0.27432396  0.59400737  0.41583571     0.28500
H214        H  0.22505789  0.40387741  0.58333807     0.28400
H215        H  0.21714371  0.54074906  0.56643725     0.19000
H216        H  0.28272573  0.45639020  0.43200889     0.19000
C217        C  0.48019771  0.79631083  0.79184801    -0.06800
C218        C  0.49997996  0.83761265  0.77722854    -0.17900
C219        C  0.02598988  0.83617327  0.73856925     0.10400
C220        C  0.03266670  0.79237775  0.71404771    -0.06700
C221        C  0.01266350  0.75130333  0.72846938    -0.17900
C222        C  0.48672315  0.75272924  0.76692108     0.10400
S223        S  0.05060879  0.89086670  0.72354662    -0.32900
S224        S  0.46440799  0.69712029  0.78403825    -0.32900
H225        H  0.47006241  0.70405040  0.83410155     0.28500
H226        H  0.08481561  0.86872900  0.70946247     0.28400
H227        H  0.49546143  0.87109204  0.79644671     0.19000
H228        H  0.01750519  0.71760359  0.70976279     0.19000
C229        C  0.46597741  0.79277449  0.21385072    -0.06800
C230        C  0.48207202  0.75011791  0.23155674    -0.17900
C231        C  0.00791926  0.75043696  0.27010851     0.10400
C232        C  0.01835915  0.79438660  0.29175132    -0.06700
C233        C  0.00262135  0.83722548  0.27392658    -0.17900
C234        C  0.47669255  0.83694061  0.23514089     0.10400
S235        S  0.02530338  0.69339720  0.29148305    -0.32900
S236        S  0.45732797  0.89373979  0.21589774    -0.32900
H237        H  0.42075592  0.87609442  0.20564984     0.28500
H238        H  0.02080763  0.70474660  0.34090207     0.28400
H239        H  0.47428172  0.71607448  0.21532625     0.19000
H240        H  0.01022484  0.87104679  0.29075121     0.19000
C241        C  0.28323025  0.70707965  0.77881686    -0.06800
C242        C  0.26671722  0.74919518  0.76046156    -0.17900
C243        C  0.23986387  0.74766812  0.72305418     0.10400
C244        C  0.22968258  0.70319230  0.70231565    -0.06700
C245        C  0.24648072  0.66100259  0.72012632    -0.17900
C246        C  0.27294928  0.66241543  0.75827048     0.10400
S247        S  0.22157793  0.80387747  0.70078614    -0.32900
S248        S  0.29386697  0.60642664  0.77737180    -0.32900
H249        H  0.32998748  0.62552478  0.78758201     0.28500
H250        H  0.18341123  0.79152407  0.70915828     0.28400
H251        H  0.27438409  0.78363801  0.77590863     0.19000
H252        H  0.23939830  0.62682955  0.70364836     0.19000
C253        C  0.26980916  0.70195283  0.20314851    -0.06800
C254        C  0.25092220  0.65992445  0.21758288    -0.17900
C255        C  0.22451177  0.66041241  0.25581608     0.10400
C256        C  0.21607182  0.70412237  0.27957852    -0.06700
C257        C  0.23496662  0.74602435  0.26507476    -0.17900
C258        C  0.26209592  0.74524308  0.22796799     0.10400
S259        S  0.20156535  0.60464196  0.27110945    -0.32900
S260        S  0.28410870  0.80122611  0.21167572    -0.32900
H261        H  0.32103292  0.78469944  0.22200387     0.28500
H262        H  0.16653676  0.62512653  0.28442298     0.28400
H263        H  0.25639799  0.62662068  0.19846209     0.19000
H264        H  0.22892959  0.77964823  0.28335114     0.19000
C265        C  0.47511302  0.19920653  0.71281071    -0.06800
C266        C  0.48313620  0.24431011  0.73283578    -0.17900
C267        C  0.00880272  0.24938553  0.77133270     0.10400
C268        C  0.02734519  0.20846500  0.79045099    -0.06700
C269        C  0.01825789  0.16307086  0.77163426    -0.17900
C270        C  0.49243133  0.15801685  0.73308058     0.10400
S271        S  0.01610883  0.30904170  0.79491710    -0.32900
S272        S  0.48250941  0.09812841  0.71194141    -0.32900
H273        H  0.44562568  0.10786119  0.69486925     0.28500
H274        H  0.01846056  0.29470132  0.84379571     0.28400
H275        H  0.46989626  0.27607387  0.71762344     0.19000
H276        H  0.03179983  0.13140610  0.78656368     0.19000
C277        C  0.47326746  0.20782182  0.29036317    -0.06800
C278        C  0.49212482  0.24933911  0.27473208    -0.17900
C279        C  0.01852080  0.24778562  0.23679625     0.10400
C280        C  0.02625473  0.20380235  0.21323856    -0.06700
C281        C  0.00820715  0.16195368  0.22967365    -0.17900
C282        C  0.48214266  0.16338423  0.26822946     0.10400
S283        S  0.04000613  0.30354985  0.21859043    -0.32900
S284        S  0.46028317  0.10770639  0.28620577    -0.32900
H285        H  0.42426676  0.12759024  0.29562110     0.28500
H286        H  0.03365078  0.29588269  0.16879673     0.28400
H287        H  0.48602340  0.28343899  0.29203702     0.19000
H288        H  0.01397370  0.12806613  0.21177633     0.19000
C289        C  0.22645707  0.29648764  0.79463141    -0.06800
C290        C  0.24413852  0.33828890  0.77742811    -0.17900
C291        C  0.27029663  0.33648816  0.73901442     0.10400
C292        C  0.27918015  0.29184553  0.71736077    -0.06700
C293        C  0.26110216  0.25026151  0.73421306    -0.17900
C294        C  0.23506898  0.25206545  0.77248869     0.10400
S295        S  0.29248398  0.39191010  0.72084200    -0.32900
S296        S  0.21552057  0.19607553  0.79331965    -0.32900
H297        H  0.22246929  0.20600978  0.84257480     0.28500
H298        H  0.32821483  0.37160867  0.71058567     0.28400
H299        H  0.23803595  0.37242649  0.79462867     0.19000
H300        H  0.26760188  0.21590613  0.71768057     0.19000
C301        C  0.27629594  0.30175605  0.29308774    -0.06800
C302        C  0.27546941  0.25987073  0.26482385    -0.17900
C303        C  0.25026795  0.25512916  0.22580924     0.10400
C304        C  0.22505527  0.29299446  0.21451102    -0.06700
C305        C  0.22693553  0.33573004  0.24129732    -0.17900
C306        C  0.25220791  0.34053907  0.28042513     0.10400
S307        S  0.25159578  0.19981973  0.19185565    -0.32900
S308        S  0.25240554  0.39701326  0.31250194    -0.32900
H309        H  0.29121176  0.39564804  0.32476547     0.28500
H310        H  0.24461211  0.22130990  0.14655538     0.28400
H311        H  0.29376507  0.22993477  0.27413996     0.19000
H312        H  0.20809439  0.36519789  0.23226189     0.19000
C313        C  0.48451728  0.95361433  0.00401598    -0.06800
C314        C  0.49678419  0.97701473  0.04648285    -0.17900
C315        C  0.01292276  0.02277325  0.04503132     0.10400
C316        C  0.01576955  0.04726395  0.00005940    -0.06700
C317        C  0.00316964  0.02402552  0.95770160    -0.17900
C318        C  0.48819206  0.97771674  0.95894452     0.10400
S319        S  0.03067166  0.04627778  0.10174447    -0.32900
S320        S  0.47308057  0.95279250  0.90167528    -0.32900
H321        H  0.50132371  0.91696398  0.90233036     0.28500
H322        H  0.06632299  0.05881808  0.08237511     0.28400
H323        H  0.49466163  0.95905925  0.08128218     0.19000
H324        H  0.00503918  0.04202134  0.92289828     0.19000
C325        C  0.26553732  0.54671609  0.99058989    -0.06800
C326        C  0.23710673  0.53983562  0.02566635    -0.17900
C327        C  0.22025968  0.49500937  0.03255175     0.10400
C328        C  0.23272381  0.45531168  0.00468042    -0.06700
C329        C  0.26102143  0.46220667  0.96946730    -0.17900
C330        C  0.27788176  0.50702386  0.96257854     0.10400
S331        S  0.18158929  0.49183941  0.07542224    -0.32900
S332        S  0.31649297  0.51007662  0.91962636    -0.32900
H333        H  0.33990429  0.53809866  0.94987312     0.28500
H334        H  0.15861860  0.46271272  0.04570196     0.28400
H335        H  0.22714218  0.56996873  0.04710270     0.19000
H336        H  0.27098240  0.43203750  0.94807001     0.19000
O337        O  0.68991298  0.28278134  0.02823850    -0.89000
C338        C  0.58681146  0.30335832  0.08929980     0.87000
Mg339      Mg  0.70161069  0.30131584  0.95454336     1.58100
O340        O  0.60781110  0.18370022  0.06213876    -0.88700
O341        O  0.69193810  0.21888922  0.07475155    -0.76100
C342        C  0.55596401  0.21246511  0.82969717     0.92100
O343        O  0.62805929  0.36366782  0.00599073    -0.75900
O344        O  0.58188507  0.24407877  0.82605992    -0.83400
Mg345      Mg  0.66277007  0.33680877  0.07153352     1.58000
C346        C  0.53258124  0.09581048  0.99513291     0.92000
O347        O  0.69806002  0.31641868  0.13924942    -0.81700
H348        H  0.64186082  0.12665704  0.06929782    -0.07000
C349        C  0.54412823  0.25411872  0.96117846     0.86900
O350        O  0.69336520  0.22268507  0.93165736    -0.76200
O351        O  0.61942996  0.28672082  0.08854723    -0.88900
O352        O  0.53486829  0.12324214  0.03201243    -0.81700
C353        C  0.54991074  0.20166190  0.16894999     0.92100
C354        C  0.69641795  0.28824783  0.17566295     0.92000
Mg355      Mg  0.58844438  0.16444943  0.93493668     1.58000
O356        O  0.55339124  0.18505847  0.86667060    -0.81700
O357        O  0.62241002  0.13690622  0.00066234    -0.75900
O358        O  0.58360759  0.21870318  0.16961529    -0.81700
O359        O  0.70638845  0.39295150  0.05282795    -0.83400
O360        O  0.66888074  0.28095206  0.83744382    -0.81800
C361        C  0.62428286  0.14804484  0.04542246     0.86400
O362        O  0.63224077  0.21415212  0.91834388    -0.88900
O363        O  0.56125060  0.21897841  0.97789071    -0.89000
O364        O  0.55912379  0.28165618  0.92976877    -0.76100
Mg365      Mg  0.63682970  0.21977072  0.11952338     1.58000
O366        O  0.53497809  0.18467382  0.13049026    -0.83400
H367        H  0.73486016  0.23881174  0.02990818    -0.07200
O368        O  0.64280419  0.31720961  0.94423687    -0.88700
H369        H  0.60762140  0.37324676  0.93770527    -0.07000
H370        H  0.66947425  0.16102819  0.90709519    -0.07200
C371        C  0.62582167  0.35236048  0.96127140     0.86400
C372        C  0.70691899  0.24711361  0.04398020     0.87000
C373        C  0.66499041  0.19786249  0.91801144     0.87000
H374        H  0.51602147  0.26242326  0.97468876    -0.07200
O375        O  0.55826011  0.27917699  0.07519716    -0.76200
Mg376      Mg  0.61499018  0.28050169  0.88629462     1.58000
H377        H  0.58263870  0.34008949  0.10075655    -0.07200
C378        C  0.71682142  0.40669569  0.01090026     0.92000
O379        O  0.71600984  0.31814599  0.87634269    -0.83400
C380        C  0.70212817  0.29926041  0.83822865     0.92100
O381        O  0.67150934  0.25531214  0.17907161    -0.83400
Mg382      Mg  0.54911806  0.20100478  0.05185108     1.58200
O383        O  0.71396408  0.37970346  0.97371846    -0.81700
O384        O  0.54471124  0.10879375  0.95365184    -0.83400
O385        O  0.93764666  0.78245893  0.02478756    -0.89000
C386        C  0.83245159  0.80337105  0.08101641     0.87000
Mg387      Mg  0.95185255  0.80020110  0.95167602     1.58100
O388        O  0.85495199  0.68392488  0.05467510    -0.88700
O389        O  0.93861692  0.71925998  0.07213695    -0.76100
C390        C  0.80981738  0.71163850  0.82016271     0.92100
O391        O  0.87702781  0.86410791  0.99920846    -0.75900
O392        O  0.83514665  0.74415337  0.81845538    -0.83400
Mg393      Mg  0.90934221  0.83695399  0.06653551     1.58000
C394        C  0.78189171  0.59520827  0.98497200     0.92000
O395        O  0.94251977  0.81661424  0.13623919    -0.81700
H396        H  0.88880177  0.62690244  0.06349877    -0.07000
C397        C  0.79381034  0.75410087  0.95160811     0.86900
O398        O  0.94358656  0.72173310  0.92829183    -0.76200
O399        O  0.86517619  0.78698549  0.08147454    -0.88900
O400        O  0.78402891  0.62217380  0.02227885    -0.81700
C401        C  0.79396880  0.70096203  0.15917506     0.92100
C402        C  0.93893100  0.78898349  0.17288258     0.92000
Mg403      Mg  0.83840399  0.66413480  0.92702778     1.58000
O404        O  0.80575168  0.68452478  0.85710538    -0.81700
O405        O  0.87066480  0.63653473  0.99417275    -0.75900
O406        O  0.82748780  0.71831175  0.16082720    -0.81700
O407        O  0.95370909  0.89284067  0.04979443    -0.83400
O408        O  0.92174928  0.78117627  0.83300331    -0.81800
C409        C  0.87175758  0.64812764  0.03885468     0.86400
O410        O  0.88282132  0.71378054  0.91244920    -0.88900
O411        O  0.81025093  0.71867299  0.96881181    -0.89000
O412        O  0.80980904  0.78171823  0.92107689    -0.76100
Mg413      Mg  0.88188951  0.72014982  0.11342402     1.58000
O414        O  0.77998679  0.68389087  0.12019411    -0.83400
H415        H  0.98286075  0.73916323  0.02943405    -0.07200
O416        O  0.89345893  0.81713692  0.93860507    -0.88700
H417        H  0.85929769  0.87384875  0.92972489    -0.07000
H418        H  0.92001092  0.66037436  0.90251049    -0.07200
C419        C  0.87635368  0.85271983  0.95444171     0.86400
C420        C  0.95440793  0.74724418  0.04185092     0.87000
C421        C  0.91545923  0.69721024  0.91337092     0.87000
H422        H  0.76541525  0.76260742  0.96396493    -0.07200
O423        O  0.80433188  0.77887501  0.06599223    -0.76200
Mg424      Mg  0.86675483  0.78046088  0.87984678     1.58000
H425        H  0.82782954  0.84007964  0.09226286    -0.07200
C426        C  0.96688161  0.90549255  0.00872499     0.92000
O427        O  0.96873412  0.81648049  0.87396632    -0.83400
C428        C  0.95527173  0.79862239  0.83506503     0.92100
O429        O  0.91371603  0.75631692  0.17457344    -0.83400
Mg430      Mg  0.79640089  0.70043695  0.04225057     1.58200
O431        O  0.96505998  0.87796590  0.97192545    -0.81700
O432        O  0.79350372  0.60883737  0.94350350    -0.83400
O433        O  0.93970346  0.21751199  0.47810494    -0.89000
C434        C  0.83629257  0.19710998  0.41642916     0.87000
Mg435      Mg  0.95180060  0.19820374  0.55162637     1.58100
O436        O  0.85697224  0.31653438  0.44498432    -0.88700
O437        O  0.94133154  0.28164431  0.43197021    -0.76100
C438        C  0.80645810  0.28679358  0.67694845     0.92100
O439        O  0.87837667  0.13563471  0.49947564    -0.75900
O440        O  0.83145846  0.25381731  0.67945460    -0.83400
Mg441      Mg  0.91254735  0.16371055  0.43417229     1.58000
C442        C  0.78068739  0.40320477  0.51250049     0.92000
O443        O  0.94747689  0.18461608  0.36660408    -0.81700
H444        H  0.89057483  0.37386688  0.43790052    -0.07000
C445        C  0.79372612  0.24490365  0.54498066     0.86900
O446        O  0.94310075  0.27642335  0.57617654    -0.76200
O447        O  0.86882661  0.21386614  0.41774445    -0.88900
O448        O  0.78374606  0.37624090  0.47532859    -0.81700
C449        C  0.79928794  0.30132167  0.33807754     0.92100
C450        C  0.94531215  0.21265380  0.33014703     0.92000
Mg451      Mg  0.83779193  0.33483981  0.57192161     1.58000
O452        O  0.80349156  0.31427448  0.64013961    -0.81700
O453        O  0.87144057  0.36310827  0.50654558    -0.75900
O454        O  0.83292172  0.28390966  0.33715676    -0.81700
O455        O  0.95639291  0.10743402  0.45173131    -0.83400
O456        O  0.91850091  0.21637378  0.66874440    -0.81800
C457        C  0.87323042  0.35224077  0.46174912     0.86400
O458        O  0.88181077  0.28470623  0.58808385    -0.88900
O459        O  0.81060502  0.28038565  0.52877933    -0.89000
O460        O  0.80898012  0.21690169  0.57581458    -0.76100
Mg461      Mg  0.88607184  0.28117035  0.38737990     1.58000
O462        O  0.78394943  0.31607068  0.37716264    -0.83400
H463        H  0.98441386  0.26168930  0.47667690    -0.07200
O464        O  0.89306525  0.18162177  0.56150906    -0.88700
H465        H  0.85869886  0.12491367  0.56791201    -0.07000
H466        H  0.91871723  0.33760383  0.60141816    -0.07200
C467        C  0.87642237  0.14635232  0.54434416     0.86400
C468        C  0.95649538  0.25335028  0.46258981     0.87000
C469        C  0.91449123  0.30100573  0.58960610     0.87000
H470        H  0.76564837  0.23664336  0.53138166    -0.07200
O471        O  0.80759688  0.22095954  0.43074751    -0.76200
Mg472      Mg  0.86479134  0.21780561  0.61936988     1.58000
H473        H  0.83234180  0.16053246  0.40437672    -0.07200
C474        C  0.96785842  0.09374544  0.49327440     0.92000
O475        O  0.96618044  0.18003702  0.62988529    -0.83400
C476        C  0.95166238  0.19763545  0.66829589     0.92100
O477        O  0.92051453  0.24590922  0.32749949    -0.83400
Mg478      Mg  0.79832610  0.29885842  0.45511994     1.58200
O479        O  0.96513221  0.12055573  0.53055431    -0.81700
O480        O  0.79347532  0.39071849  0.55382204    -0.83400
O481        O  0.68817557  0.71590397  0.46854157    -0.89000
C482        C  0.58283056  0.69389758  0.41369811     0.87000
Mg483      Mg  0.70249715  0.69900419  0.54202911     1.58100
O484        O  0.60488925  0.81367576  0.43837054    -0.88700
O485        O  0.68857040  0.77847537  0.42029257    -0.76100
C486        C  0.55948965  0.78762170  0.67300578     0.92100
O487        O  0.62827311  0.63377825  0.49502397    -0.75900
O488        O  0.58439087  0.75444742  0.67470693    -0.83400
Mg489      Mg  0.66016114  0.66069261  0.42743591     1.58000
C490        C  0.53207578  0.90319623  0.50771401     0.92000
O491        O  0.69280449  0.68065947  0.35721169    -0.81700
H492        H  0.63901959  0.87023021  0.42919108    -0.07000
C493        C  0.54403060  0.74450993  0.54194633     0.86900
O494        O  0.69374599  0.77742197  0.56503240    -0.76200
O495        O  0.61551842  0.71023573  0.41235094    -0.88900
O496        O  0.53365471  0.87568949  0.47083010    -0.81700
C497        C  0.54322389  0.79586630  0.33489169     0.92100
C498        C  0.68889574  0.70795220  0.32033089     0.92000
Mg499      Mg  0.58882848  0.83459244  0.56617259     1.58000
O500        O  0.55601106  0.81520923  0.63630740    -0.81700
O501        O  0.62107470  0.86112383  0.49863594    -0.75900
O502        O  0.57649752  0.77760115  0.33274507    -0.81700
O503        O  0.70516361  0.60537719  0.44474799    -0.83400
O504        O  0.67140116  0.71721647  0.66071810    -0.81800
C505        C  0.62193707  0.84932537  0.45399245     0.86400
O506        O  0.63299618  0.78484784  0.58133116    -0.88900
O507        O  0.56047810  0.77989212  0.52484606    -0.89000
O508        O  0.56007411  0.71666148  0.57224489    -0.76100
Mg509      Mg  0.63152207  0.77684951  0.37954195     1.58000
O510        O  0.52987329  0.81374063  0.37381465    -0.83400
H511        H  0.73314754  0.75934081  0.46295359    -0.07200
O512        O  0.64411004  0.68161098  0.55513606    -0.88700
H513        H  0.61062608  0.62448900  0.56455720    -0.07000
H514        H  0.66990016  0.83842473  0.59138457    -0.07200
C515        C  0.62743666  0.64561697  0.53965327     0.86400
C516        C  0.70466282  0.75097975  0.45088012     0.87000
C517        C  0.66554727  0.80159289  0.58040319     0.87000
H518        H  0.51564173  0.73614036  0.52952132    -0.07200
O519        O  0.55479552  0.71871447  0.42863739    -0.76200
Mg520      Mg  0.61678521  0.71810888  0.61365639     1.58000
H521        H  0.57815095  0.65700285  0.40319389    -0.07200
C522        C  0.71886782  0.59363292  0.48583118     0.92000
O523        O  0.71940308  0.68379100  0.61991022    -0.83400
C524        C  0.70525133  0.70079542  0.65880464     0.92100
O525        O  0.66338481  0.74034863  0.31833557    -0.83400
Mg526      Mg  0.54648188  0.79743891  0.45147785     1.58200
O527        O  0.71655457  0.62115789  0.52269100    -0.81700
O528        O  0.54448518  0.89025938  0.54908335    -0.83400
C529        C  0.98460577  0.04524734  0.49805009    -0.06800
C530        C  0.00266025  0.02484543  0.45747097    -0.17900
C531        C  0.51862475  0.97895510  0.45944604     0.10400
C532        C  0.51565460  0.95174426  0.50270046    -0.06700
C533        C  0.49715584  0.97186672  0.54300599    -0.17900
C534        C  0.98173528  0.01797623  0.54123819     0.10400
S535        S  0.54385090  0.95858272  0.40623255    -0.32900
S536        S  0.95662076  0.03844426  0.59429582    -0.32900
H537        H  0.98459578  0.07285859  0.60511022     0.28500
H538        H  0.57520176  0.94093447  0.43250949     0.28400
H539        H  0.00519848  0.04526854  0.42413849     0.19000
H540        H  0.49433127  0.95130375  0.57621847     0.19000
C541        C  0.73641871  0.54580128  0.49208262    -0.06800
C542        C  0.73199228  0.52273331  0.53711718    -0.17900
C543        C  0.74479404  0.47583723  0.54454168     0.10400
C544        C  0.76337265  0.45122412  0.50637222    -0.06700
C545        C  0.76787530  0.47436518  0.46135330    -0.17900
C546        C  0.75519582  0.52133358  0.45400861     0.10400
S547        S  0.73469702  0.44899187  0.60271517    -0.32900
S548        S  0.76588007  0.54861495  0.39620945    -0.32900
H549        H  0.77432389  0.59400732  0.41583581     0.28500
H550        H  0.72505801  0.40387736  0.58333800     0.28400
H551        H  0.71714370  0.54074901  0.56643712     0.19000
H552        H  0.78272556  0.45639036  0.43200917     0.19000
C553        C  0.98019781  0.79631079  0.79184802    -0.06800
C554        C  0.99998000  0.83761275  0.77722844    -0.17900
C555        C  0.52598974  0.83617332  0.73856928     0.10400
C556        C  0.53266668  0.79237778  0.71404780    -0.06700
C557        C  0.51266346  0.75130331  0.72846943    -0.17900
C558        C  0.98672318  0.75272922  0.76692101     0.10400
S559        S  0.55060870  0.89086670  0.72354666    -0.32900
S560        S  0.96440794  0.69712033  0.78403822    -0.32900
H561        H  0.97006237  0.70405040  0.83410151     0.28500
H562        H  0.58481558  0.86872917  0.70946242     0.28400
H563        H  0.99546196  0.87109138  0.79644658     0.19000
H564        H  0.51750479  0.71760410  0.70976283     0.19000
C565        C  0.96597737  0.79277430  0.21385083    -0.06800
C566        C  0.98207209  0.75011775  0.23155672    -0.17900
C567        C  0.50791920  0.75043716  0.27010851     0.10400
C568        C  0.51835906  0.79438685  0.29175132    -0.06700
C569        C  0.50262131  0.83722572  0.27392649    -0.17900
C570        C  0.97669261  0.83694038  0.23514093     0.10400
S571        S  0.52530334  0.69339736  0.29148321    -0.32900
S572        S  0.95732781  0.89373963  0.21589803    -0.32900
H573        H  0.92075594  0.87609366  0.20565014     0.28500
H574        H  0.52080733  0.70474714  0.34090211     0.28400
H575        H  0.97428163  0.71607407  0.21532622     0.19000
H576        H  0.51022460  0.87104745  0.29075170     0.19000
C577        C  0.78323030  0.70708001  0.77881690    -0.06800
C578        C  0.76671716  0.74919515  0.76046152    -0.17900
C579        C  0.73986400  0.74766842  0.72305432     0.10400
C580        C  0.72968265  0.70319240  0.70231569    -0.06700
C581        C  0.74648067  0.66100272  0.72012636    -0.17900
C582        C  0.77294918  0.66241552  0.75827044     0.10400
S583        S  0.72157794  0.80387748  0.70078614    -0.32900
S584        S  0.79386657  0.60642641  0.77737145    -0.32900
H585        H  0.82998698  0.62552467  0.78758185     0.28500
H586        H  0.68341125  0.79152413  0.70915848     0.28400
H587        H  0.77438520  0.78364186  0.77590981     0.19000
H588        H  0.73939819  0.62682957  0.70364828     0.19000
C589        C  0.76980918  0.70195274  0.20314837    -0.06800
C590        C  0.75092217  0.65992458  0.21758277    -0.17900
C591        C  0.72451176  0.66041229  0.25581577     0.10400
C592        C  0.71607193  0.70412231  0.27957845    -0.06700
C593        C  0.73496677  0.74602438  0.26507466    -0.17900
C594        C  0.76209610  0.74524308  0.22796793     0.10400
S595        S  0.70156547  0.60464182  0.27110906    -0.32900
S596        S  0.78410891  0.80122613  0.21167572    -0.32900
H597        H  0.82103303  0.78469920  0.22200398     0.28500
H598        H  0.66653684  0.62512604  0.28442292     0.28400
H599        H  0.75639794  0.62661903  0.19846046     0.19000
H600        H  0.72893018  0.77964785  0.28335124     0.19000
C601        C  0.97511311  0.19920640  0.71281071    -0.06800
C602        C  0.98313628  0.24431008  0.73283567    -0.17900
C603        C  0.50880266  0.24938569  0.77133272     0.10400
C604        C  0.52734516  0.20846517  0.79045091    -0.06700
C605        C  0.51825786  0.16307093  0.77163420    -0.17900
C606        C  0.99243144  0.15801669  0.73308059     0.10400
S607        S  0.51610898  0.30904172  0.79491704    -0.32900
S608        S  0.98250905  0.09812847  0.71194133    -0.32900
H609        H  0.94562535  0.10786140  0.69486911     0.28500
H610        H  0.51846067  0.29470140  0.84379566     0.28400
H611        H  0.96989708  0.27607279  0.71762367     0.19000
H612        H  0.53179902  0.13140742  0.78656310     0.19000
C613        C  0.97326752  0.20782182  0.29036309    -0.06800
C614        C  0.99212486  0.24933910  0.27473199    -0.17900
C615        C  0.51852078  0.24778562  0.23679626     0.10400
C616        C  0.52625470  0.20380238  0.21323850    -0.06700
C617        C  0.50820714  0.16195371  0.22967364    -0.17900
C618        C  0.98214268  0.16338420  0.26822940     0.10400
S619        S  0.54000608  0.30354987  0.21859040    -0.32900
S620        S  0.96028313  0.10770641  0.28620574    -0.32900
H621        H  0.92426674  0.12759031  0.29562111     0.28500
H622        H  0.53365073  0.29588270  0.16879670     0.28400
H623        H  0.98602338  0.28343910  0.29203696     0.19000
H624        H  0.51397365  0.12806626  0.21177631     0.19000
C625        C  0.72645708  0.29648778  0.79463152    -0.06800
C626        C  0.74413850  0.33828900  0.77742806    -0.17900
C627        C  0.77029664  0.33648818  0.73901443     0.10400
C628        C  0.77918003  0.29184556  0.71736077    -0.06700
C629        C  0.76110213  0.25026140  0.73421331    -0.17900
C630        C  0.73506888  0.25206561  0.77248895     0.10400
S631        S  0.79248394  0.39191013  0.72084196    -0.32900
S632        S  0.71552061  0.19607578  0.79332050    -0.32900
H633        H  0.72246985  0.20601064  0.84257542     0.28500
H634        H  0.82821480  0.37160874  0.71058566     0.28400
H635        H  0.73803588  0.37242664  0.79462843     0.19000
H636        H  0.76760132  0.21590702  0.71768112     0.19000
C637        C  0.77629594  0.30175594  0.29308775    -0.06800
C638        C  0.77546939  0.25987088  0.26482381    -0.17900
C639        C  0.75026816  0.25512906  0.22580929     0.10400
C640        C  0.72505540  0.29299441  0.21451106    -0.06700
C641        C  0.72693555  0.33572997  0.24129740    -0.17900
C642        C  0.75220791  0.34053907  0.28042511     0.10400
S643        S  0.75159597  0.19981971  0.19185573    -0.32900
S644        S  0.75240549  0.39701323  0.31250195    -0.32900
H645        H  0.79121171  0.39564809  0.32476550     0.28500
H646        H  0.74461205  0.22130976  0.14655548     0.28400
H647        H  0.79376648  0.22993337  0.27414023     0.19000
H648        H  0.70809433  0.36519780  0.23226202     0.19000
C649        C  0.98451736  0.95361428  0.00401606    -0.06800
C650        C  0.99678437  0.97701464  0.04648287    -0.17900
C651        C  0.51292265  0.02277328  0.04503133     0.10400
C652        C  0.51576949  0.04726396  0.00005941    -0.06700
C653        C  0.50316962  0.02402552  0.95770158    -0.17900
C654        C  0.98819208  0.97771674  0.95894463     0.10400
S655        S  0.53067170  0.04627779  0.10174441    -0.32900
S656        S  0.97308015  0.95279268  0.90167551    -0.32900
H657        H  0.00132348  0.91696438  0.90233001     0.28500
H658        H  0.56632294  0.05881793  0.08237468     0.28400
H659        H  0.99466196  0.95905910  0.08128217     0.19000
H660        H  0.50503928  0.04202136  0.92289824     0.19000
C661        C  0.76553720  0.54671620  0.99059003    -0.06800
C662        C  0.73710674  0.53983559  0.02566630    -0.17900
C663        C  0.72025973  0.49500955  0.03255176     0.10400
C664        C  0.73272384  0.45531172  0.00468032    -0.06700
C665        C  0.76102144  0.46220664  0.96946729    -0.17900
C666        C  0.77788170  0.50702384  0.96257866     0.10400
S667        S  0.68158954  0.49183954  0.07542248    -0.32900
S668        S  0.81649291  0.51007662  0.91962637    -0.32900
H669        H  0.83990438  0.53809868  0.94987292     0.28500
H670        H  0.65861886  0.46271289  0.04570217     0.28400
H671        H  0.72714169  0.56997036  0.04710402     0.19000
H672        H  0.77098235  0.43203752  0.94806985     0.19000
loop_ 
_geom_bond_atom_site_label_1 
_geom_bond_atom_site_label_2 
_geom_bond_distance 
_geom_bond_site_symmetry_2 
_ccdc_geom_bond_type 
O1           Mg3   2.134   1_554  S
O1           Mg9   2.143       .  S
O1           C36   1.238       .  S
C2           O15   1.237       .  S
C2           O39   1.271       .  A
C2           H41   1.081       .  S
Mg3          O32   2.134       .  S
Mg3          O47   2.290       .  S
Mg3          O43   2.261       .  S
Mg3          O14   2.299       .  S
O4          Mg46   2.139       .  S
O4          Mg29   2.132       .  S
O4           C25   1.238       .  S
O5           C36   1.272       .  A
O5          Mg29   2.298       .  S
C6            O8   1.273       .  A
C6           O20   1.276       .  A
C6          C268   1.480       .  S
O7           C35   1.272   1_554  A
O7           Mg9   2.303       .  S
O8          Mg40   2.266       .  S
Mg9          O15   2.122       .  S
Mg9          O23   2.254       .  S
Mg9          O11   2.310       .  S
C10          O48   1.272       .  A
C10          O16   1.273   1_556  A
C10         C316   1.484   1_556  S
O11          C18   1.275       .  A
H12          C25   1.081       .  S
C13          O27   1.238       .  S
C13          O28   1.272       .  A
C13          H38   1.081       .  S
O14          C37   1.272       .  A
O15         Mg29   2.141       .  S
O16         Mg46   2.291       .  S
C17          O30   1.273       .  A
C17          O22   1.278       .  A
C17         C280   1.477       .  S
C18          O45   1.274       .  A
C18         C304   1.475       .  S
Mg19         O26   2.124       .  S
Mg19         O27   2.149       .  S
Mg19         O20   2.319       .  S
Mg19         O21   2.299   1_556  S
Mg19         O48   2.247       .  S
O21          C25   1.272       .  A
O22         Mg29   2.326       .  S
O23          C42   1.271       .  A
O24          C44   1.277       .  A
O24         Mg40   2.325       .  S
O26         Mg40   2.137       .  S
O26          C37   1.238       .  S
O27         Mg46   2.140   1_556  S
O28         Mg40   2.302       .  S
Mg29         O45   2.270       .  S
O30         Mg46   2.268       .  S
H31          C36   1.081       .  S
O32         Mg40   2.132       .  S
O32          C35   1.239       .  S
H33          C35   1.081       .  S
H34          C37   1.081       .  S
O39         Mg46   2.294       .  S
C42          O47   1.273   1_554  A
C42         C328   1.477       .  S
O43          C44   1.271       .  A
C44         C289   1.476       .  S
O49         Mg51   2.132   1_554  S
O49         Mg57   2.148       .  S
O49          C84   1.237       .  S
C50          O63   1.238       .  S
C50          O87   1.272       .  A
C50          H89   1.081       .  S
Mg51         O80   2.138       .  S
Mg51         O95   2.286       .  S
Mg51         O91   2.266       .  S
Mg51         O62   2.298       .  S
O52         Mg94   2.138       .  S
O52         Mg77   2.128       .  S
O52          C73   1.238       .  S
O53          C84   1.271       .  A
O53         Mg77   2.297       .  S
C54          O56   1.273       .  A
C54          O68   1.276       .  A
C54         C241   1.478       .  S
O55          C83   1.272       .  A
O55         Mg57   2.301   1_556  S
O56         Mg88   2.261       .  S
Mg57         O63   2.129       .  S
Mg57         O71   2.255       .  S
Mg57         O59   2.316       .  S
C58          O96   1.271       .  A
C58          O64   1.274   1_556  A
C58         C325   1.478       .  S
O59          C66   1.276       .  A
H60          C73   1.081       .  S
C61          O75   1.238       .  S
C61          O76   1.272       .  A
C61          H86   1.081       .  S
O62          C85   1.271       .  A
O63         Mg77   2.142       .  S
O64         Mg94   2.292       .  S
C65          O78   1.272       .  A
C65          O70   1.276       .  A
C65         C253   1.479       .  S
C66          O93   1.273       .  A
C66         C229   1.479       .  S
Mg67         O74   2.128       .  S
Mg67         O75   2.147       .  S
Mg67         O68   2.312       .  S
Mg67         O69   2.301       .  S
Mg67         O96   2.255       .  S
O69          C73   1.272   1_556  A
O70         Mg77   2.317       .  S
O71          C90   1.272       .  A
O72          C92   1.278       .  A
O72         Mg88   2.326       .  S
O74         Mg88   2.140       .  S
O74          C85   1.237       .  S
O75         Mg94   2.141   1_556  S
O76         Mg88   2.303       .  S
Mg77         O93   2.258       .  S
O78         Mg94   2.270       .  S
H79          C84   1.081       .  S
O80         Mg88   2.131       .  S
O80          C83   1.238       .  S
H81          C83   1.081       .  S
H82          C85   1.081       .  S
O87         Mg94   2.299       .  S
C90          O95   1.272   1_554  A
C90         C313   1.485       .  S
O91          C92   1.272       .  A
C92         C217   1.479       .  S
O97         Mg99   2.137       .  S
O97        Mg105   2.150       .  S
O97         C132   1.238       .  S
C98         O111   1.237       .  S
C98         O135   1.271       .  A
C98         H137   1.081       .  S
Mg99        O128   2.136       .  S
Mg99        O143   2.288       .  S
Mg99        O139   2.270       .  S
Mg99        O110   2.302       .  S
O100       Mg142   2.140       .  S
O100       Mg125   2.128       .  S
O100        C121   1.237       .  S
O101        C132   1.271       .  A
O101       Mg125   2.299       .  S
C102        O104   1.273       .  A
C102        O116   1.275       .  A
C102        C292   1.476       .  S
O103        C131   1.272       .  A
O103       Mg105   2.301       .  S
O104       Mg136   2.261       .  S
Mg105       O111   2.126       .  S
Mg105       O119   2.251       .  S
Mg105       O107   2.305       .  S
C106        O144   1.271       .  A
C106        O112   1.273       .  A
C106        C208   1.480       .  S
O107        C114   1.275       .  A
H108        C121   1.081       .  S
C109        O123   1.238       .  S
C109        O124   1.272       .  A
C109        H134   1.081       .  S
O110        C133   1.272       .  A
O111       Mg125   2.143       .  S
O112       Mg142   2.285       .  S
C113        O126   1.271       .  A
C113        O118   1.279       .  A
C113        C301   1.479       .  S
C114        O141   1.274       .  A
C114        C277   1.478       .  S
Mg115       O122   2.132       .  S
Mg115       O123   2.151       .  S
Mg115       O116   2.306       .  S
Mg115       O117   2.295       .  S
Mg115       O144   2.258       .  S
O117        C121   1.271       .  A
O118       Mg125   2.326       .  S
O119        C138   1.271       .  A
O120        C140   1.278       .  A
O120       Mg136   2.327       .  S
O122       Mg136   2.141       .  S
O122        C133   1.238       .  S
O123       Mg142   2.136       .  S
O124       Mg136   2.300       .  S
Mg125       O141   2.268       .  S
O126       Mg142   2.256       .  S
H127        C132   1.081       .  S
O128       Mg136   2.130       .  S
O128        C131   1.238       .  S
H129        C131   1.081       .  S
H130        C133   1.081       .  S
O135       Mg142   2.295       .  S
C138        O143   1.272       .  A
C138        C193   1.480       .  S
O139        C140   1.272       .  A
C140        C265   1.477       .  S
O145       Mg147   2.137       .  S
O145       Mg153   2.149       .  S
O145        C180   1.238       .  S
C146        O159   1.238       .  S
C146        O183   1.272       .  A
C146        H185   1.081       .  S
Mg147       O176   2.142       .  S
Mg147       O191   2.287       .  S
Mg147       O187   2.264       .  S
Mg147       O158   2.295       .  S
O148       Mg190   2.136       .  S
O148       Mg173   2.133       .  S
O148        C169   1.238       .  S
O149        C180   1.271       .  A
O149       Mg173   2.299       .  S
C150        O152   1.274       .  A
C150        O164   1.276       .  A
C150        C220   1.478       .  S
O151        C179   1.272       .  A
O151       Mg153   2.300       .  S
O152       Mg184   2.268       .  S
Mg153       O159   2.131       .  S
Mg153       O167   2.259       .  S
Mg153       O155   2.317       .  S
C154        O192   1.271       .  A
C154        O160   1.273       .  A
C154        C196   1.477       .  S
O155        C162   1.276       .  A
H156        C169   1.081       .  S
C157        O171   1.238       .  S
C157        O172   1.271       .  A
C157        H182   1.081       .  S
O158        C181   1.271       .  A
O159       Mg173   2.142       .  S
O160       Mg190   2.289       .  S
C161        O174   1.271       .  A
C161        O166   1.277       .  A
C161        C232   1.475       .  S
C162        O189   1.273       .  A
C162        C256   1.478       .  S
Mg163       O170   2.123       .  S
Mg163       O171   2.148       .  S
Mg163       O164   2.314       .  S
Mg163       O165   2.301       .  S
Mg163       O192   2.249       .  S
O165        C169   1.272       .  A
O166       Mg173   2.325       .  S
O167        C186   1.272       .  A
O168        C188   1.276       .  A
O168       Mg184   2.317       .  S
O170       Mg184   2.141       .  S
O170        C181   1.238       .  S
O171       Mg190   2.135       .  S
O172       Mg184   2.298       .  S
Mg173       O189   2.264       .  S
O174       Mg190   2.262       .  S
H175        C180   1.081       .  S
O176       Mg184   2.133       .  S
O176        C179   1.238       .  S
H177        C179   1.081       .  S
H178        C181   1.081       .  S
O183       Mg190   2.300       .  S
C186        O191   1.274       .  A
C186        C205   1.479       .  S
O187        C188   1.272       .  A
C188        C244   1.475       .  S
C193        C194   1.404       .  A
C193        C198   1.415       .  A
C194        H203   1.084       .  S
C194        C531   1.397   1_545  A
C195        C196   1.416       .  A
C195        C530   1.397   1_565  A
C195        S199   1.804       .  S
C196        C197   1.402   1_455  A
C197        H204   1.084       .  S
C197        C534   1.395   1_565  A
C198        C533   1.395   1_545  A
C198        S200   1.799       .  S
S199        H202   1.407       .  S
S200        H201   1.407       .  S
C205        C206   1.406       .  A
C205        C210   1.413       .  A
C206        H215   1.084       .  S
C206        C207   1.397       .  A
C207        C208   1.414       .  A
C207        S211   1.804       .  S
C208        C209   1.407       .  A
C209        H216   1.084       .  S
C209        C210   1.397       .  A
C210        S212   1.804       .  S
S211        H214   1.407       .  S
S212        H213   1.407       .  S
C217        C218   1.406       .  A
C217        C222   1.413       .  A
C218        H227   1.084       .  S
C218        C555   1.404       .  A
C219        C220   1.414       .  A
C219        C554   1.404   1_455  A
C219        S223   1.803       .  S
C220        C221   1.403       .  A
C221        H228   1.084       .  S
C221        C558   1.398   1_455  A
C222        C557   1.398       .  A
C222        S224   1.802       .  S
S223        H226   1.406       .  S
S224        H225   1.405       .  S
C229        C230   1.404       .  A
C229        C234   1.414       .  A
C230        H239   1.084       .  S
C230        C567   1.397       .  A
C231        C232   1.411       .  A
C231        C566   1.397   1_455  A
C231        S235   1.802       .  S
C232        C233   1.404       .  A
C233        H240   1.084       .  S
C233        C570   1.404   1_455  A
C234        C569   1.404       .  A
C234        S236   1.803       .  S
S235        H238   1.405       .  S
S236        H237   1.406       .  S
C241        C242   1.404       .  A
C241        C246   1.414       .  A
C242        H251   1.084       .  S
C242        C243   1.398       .  A
C243        C244   1.411       .  A
C243        S247   1.801       .  S
C244        C245   1.404       .  A
C245        H252   1.084       .  S
C245        C246   1.403       .  A
C246        S248   1.803       .  S
S247        H250   1.406       .  S
S248        H249   1.407       .  S
C253        C254   1.406       .  A
C253        C258   1.412       .  A
C254        H263   1.084       .  S
C254        C255   1.404       .  A
C255        C256   1.413       .  A
C255        S259   1.803       .  S
C256        C257   1.403       .  A
C257        H264   1.084       .  S
C257        C258   1.398       .  A
C258        S260   1.800       .  S
S259        H262   1.406       .  S
S260        H261   1.407       .  S
C265        C266   1.401       .  A
C265        C270   1.414       .  A
C266        H275   1.084       .  S
C266        C603   1.399       .  A
C267        C268   1.415       .  A
C267        C602   1.399   1_455  A
C267        S271   1.803       .  S
C268        C269   1.404       .  A
C269        H276   1.084       .  S
C269        C606   1.404   1_455  A
C270        C605   1.404       .  A
C270        S272   1.802       .  S
S271        H274   1.406       .  S
S272        H273   1.406       .  S
C277        C278   1.403       .  A
C277        C282   1.414       .  A
C278        H287   1.084       .  S
C278        C615   1.398       .  A
C279        C280   1.412       .  A
C279        C614   1.398   1_455  A
C279        S283   1.801       .  S
C280        C281   1.404       .  A
C281        H288   1.084       .  S
C281        C618   1.403   1_455  A
C282        C617   1.403       .  A
C282        S284   1.803       .  S
S283        H286   1.405       .  S
S284        H285   1.406       .  S
C289        C290   1.404       .  A
C289        C294   1.412       .  A
C290        H299   1.084       .  S
C290        C291   1.403       .  A
C291        C292   1.414       .  A
C291        S295   1.803       .  S
C292        C293   1.403       .  A
C293        H300   1.084       .  S
C293        C294   1.397       .  A
C294        S296   1.801       .  S
S295        H298   1.406       .  S
S296        H297   1.405       .  S
C301        C302   1.403       .  A
C301        C306   1.416       .  A
C302        H311   1.084       .  S
C302        C303   1.398       .  A
C303        C304   1.413       .  A
C303        S307   1.803       .  S
C304        C305   1.402       .  A
C305        H312   1.084       .  S
C305        C306   1.403       .  A
C306        S308   1.804       .  S
S307        H310   1.405       .  S
S308        H309   1.407       .  S
C313        C314   1.406       .  A
C313        C318   1.417   1_554  A
C314        H323   1.084       .  S
C314        C651   1.398   1_565  A
C315        C316   1.418       .  A
C315        C650   1.398   1_445  A
C315        S319   1.804       .  S
C316        C317   1.405   1_554  A
C317        H324   1.084       .  S
C317        C654   1.395   1_445  A
C318        C653   1.395   1_565  A
C318        S320   1.802       .  S
S319        H322   1.408       .  S
S320        H321   1.408       .  S
C325        C326   1.404   1_556  A
C325        C330   1.416       .  A
C326        H335   1.084       .  S
C326        C327   1.397       .  A
C327        C328   1.415       .  A
C327        S331   1.804       .  S
C328        C329   1.403   1_554  A
C329        H336   1.084       .  S
C329        C330   1.397       .  A
C330        S332   1.803       .  S
S331        H334   1.408       .  S
S332        H333   1.408       .  S
O337       Mg339   2.134   1_554  S
O337       Mg345   2.143       .  S
O337        C372   1.238       .  S
C338        O351   1.237       .  S
C338        O375   1.271       .  A
C338        H377   1.081       .  S
Mg339       O368   2.134       .  S
Mg339       O383   2.290       .  S
Mg339       O379   2.261       .  S
Mg339       O350   2.299       .  S
O340       Mg382   2.139       .  S
O340       Mg365   2.132       .  S
O340        C361   1.238       .  S
O341        C372   1.272       .  A
O341       Mg365   2.298       .  S
C342        O344   1.273       .  A
C342        O356   1.276       .  A
C342        C604   1.480       .  S
O343        C371   1.272   1_554  A
O343       Mg345   2.303       .  S
O344       Mg376   2.266       .  S
Mg345       O351   2.122       .  S
Mg345       O359   2.254       .  S
Mg345       O347   2.310       .  S
C346        O384   1.272       .  A
C346        O352   1.273   1_556  A
C346        C652   1.484   1_556  S
O347        C354   1.275       .  A
H348        C361   1.081       .  S
C349        O363   1.238       .  S
C349        O364   1.272       .  A
C349        H374   1.081       .  S
O350        C373   1.272       .  A
O351       Mg365   2.141       .  S
O352       Mg382   2.291       .  S
C353        O366   1.273       .  A
C353        O358   1.278       .  A
C353        C616   1.477       .  S
C354        O381   1.274       .  A
C354        C640   1.475       .  S
Mg355       O362   2.124       .  S
Mg355       O363   2.149       .  S
Mg355       O356   2.319       .  S
Mg355       O357   2.299   1_556  S
Mg355       O384   2.247       .  S
O357        C361   1.272       .  A
O358       Mg365   2.326       .  S
O359        C378   1.271       .  A
O360        C380   1.277       .  A
O360       Mg376   2.325       .  S
O362       Mg376   2.137       .  S
O362        C373   1.238       .  S
O363       Mg382   2.140   1_556  S
O364       Mg376   2.302       .  S
Mg365       O381   2.270       .  S
O366       Mg382   2.268       .  S
H367        C372   1.081       .  S
O368       Mg376   2.132       .  S
O368        C371   1.239       .  S
H369        C371   1.081       .  S
H370        C373   1.081       .  S
O375       Mg382   2.294       .  S
C378        O383   1.273   1_554  A
C378        C664   1.477       .  S
O379        C380   1.271       .  A
C380        C625   1.476       .  S
O385       Mg387   2.132   1_554  S
O385       Mg393   2.148       .  S
O385        C420   1.237       .  S
C386        O399   1.238       .  S
C386        O423   1.272       .  A
C386        H425   1.081       .  S
Mg387       O416   2.138       .  S
Mg387       O431   2.286       .  S
Mg387       O427   2.266       .  S
Mg387       O398   2.298       .  S
O388       Mg430   2.138       .  S
O388       Mg413   2.128       .  S
O388        C409   1.238       .  S
O389        C420   1.271       .  A
O389       Mg413   2.297       .  S
C390        O392   1.273       .  A
C390        O404   1.276       .  A
C390        C577   1.478       .  S
O391        C419   1.272       .  A
O391       Mg393   2.301   1_556  S
O392       Mg424   2.261       .  S
Mg393       O399   2.129       .  S
Mg393       O407   2.255       .  S
Mg393       O395   2.316       .  S
C394        O432   1.271       .  A
C394        O400   1.274   1_556  A
C394        C661   1.478       .  S
O395        C402   1.276       .  A
H396        C409   1.081       .  S
C397        O411   1.238       .  S
C397        O412   1.272       .  A
C397        H422   1.081       .  S
O398        C421   1.271       .  A
O399       Mg413   2.142       .  S
O400       Mg430   2.292       .  S
C401        O414   1.272       .  A
C401        O406   1.276       .  A
C401        C589   1.479       .  S
C402        O429   1.273       .  A
C402        C565   1.479       .  S
Mg403       O410   2.128       .  S
Mg403       O411   2.147       .  S
Mg403       O404   2.312       .  S
Mg403       O405   2.301       .  S
Mg403       O432   2.255       .  S
O405        C409   1.272   1_556  A
O406       Mg413   2.317       .  S
O407        C426   1.272       .  A
O408        C428   1.278       .  A
O408       Mg424   2.326       .  S
O410       Mg424   2.140       .  S
O410        C421   1.237       .  S
O411       Mg430   2.141   1_556  S
O412       Mg424   2.303       .  S
Mg413       O429   2.258       .  S
O414       Mg430   2.270       .  S
H415        C420   1.081       .  S
O416       Mg424   2.131       .  S
O416        C419   1.238       .  S
H417        C419   1.081       .  S
H418        C421   1.081       .  S
O423       Mg430   2.299       .  S
C426        O431   1.272   1_554  A
C426        C649   1.485       .  S
O427        C428   1.272       .  A
C428        C553   1.479       .  S
O433       Mg435   2.137       .  S
O433       Mg441   2.150       .  S
O433        C468   1.238       .  S
C434        O447   1.237       .  S
C434        O471   1.271       .  A
C434        H473   1.081       .  S
Mg435       O464   2.136       .  S
Mg435       O479   2.288       .  S
Mg435       O475   2.270       .  S
Mg435       O446   2.302       .  S
O436       Mg478   2.140       .  S
O436       Mg461   2.128       .  S
O436        C457   1.237       .  S
O437        C468   1.271       .  A
O437       Mg461   2.299       .  S
C438        O440   1.273       .  A
C438        O452   1.275       .  A
C438        C628   1.476       .  S
O439        C467   1.272       .  A
O439       Mg441   2.301       .  S
O440       Mg472   2.261       .  S
Mg441       O447   2.126       .  S
Mg441       O455   2.251       .  S
Mg441       O443   2.305       .  S
C442        O480   1.271       .  A
C442        O448   1.273       .  A
C442        C544   1.480       .  S
O443        C450   1.275       .  A
H444        C457   1.081       .  S
C445        O459   1.238       .  S
C445        O460   1.272       .  A
C445        H470   1.081       .  S
O446        C469   1.272       .  A
O447       Mg461   2.143       .  S
O448       Mg478   2.285       .  S
C449        O462   1.271       .  A
C449        O454   1.279       .  A
C449        C637   1.479       .  S
C450        O477   1.274       .  A
C450        C613   1.478       .  S
Mg451       O458   2.132       .  S
Mg451       O459   2.151       .  S
Mg451       O452   2.306       .  S
Mg451       O453   2.295       .  S
Mg451       O480   2.258       .  S
O453        C457   1.271       .  A
O454       Mg461   2.326       .  S
O455        C474   1.271       .  A
O456        C476   1.278       .  A
O456       Mg472   2.327       .  S
O458       Mg472   2.141       .  S
O458        C469   1.238       .  S
O459       Mg478   2.136       .  S
O460       Mg472   2.300       .  S
Mg461       O477   2.268       .  S
O462       Mg478   2.256       .  S
H463        C468   1.081       .  S
O464       Mg472   2.130       .  S
O464        C467   1.238       .  S
H465        C467   1.081       .  S
H466        C469   1.081       .  S
O471       Mg478   2.295       .  S
C474        O479   1.272       .  A
C474        C529   1.480       .  S
O475        C476   1.272       .  A
C476        C601   1.477       .  S
O481       Mg483   2.137       .  S
O481       Mg489   2.149       .  S
O481        C516   1.238       .  S
C482        O495   1.238       .  S
C482        O519   1.272       .  A
C482        H521   1.081       .  S
Mg483       O512   2.142       .  S
Mg483       O527   2.287       .  S
Mg483       O523   2.264       .  S
Mg483       O494   2.295       .  S
O484       Mg526   2.136       .  S
O484       Mg509   2.133       .  S
O484        C505   1.238       .  S
O485        C516   1.271       .  A
O485       Mg509   2.299       .  S
C486        O488   1.274       .  A
C486        O500   1.276       .  A
C486        C556   1.478       .  S
O487        C515   1.272       .  A
O487       Mg489   2.300       .  S
O488       Mg520   2.268       .  S
Mg489       O495   2.131       .  S
Mg489       O503   2.259       .  S
Mg489       O491   2.317       .  S
C490        O528   1.271       .  A
C490        O496   1.273       .  A
C490        C532   1.477       .  S
O491        C498   1.276       .  A
H492        C505   1.081       .  S
C493        O507   1.238       .  S
C493        O508   1.271       .  A
C493        H518   1.081       .  S
O494        C517   1.271       .  A
O495       Mg509   2.142       .  S
O496       Mg526   2.289       .  S
C497        O510   1.271       .  A
C497        O502   1.277       .  A
C497        C568   1.475       .  S
C498        O525   1.273       .  A
C498        C592   1.478       .  S
Mg499       O506   2.123       .  S
Mg499       O507   2.148       .  S
Mg499       O500   2.314       .  S
Mg499       O501   2.301       .  S
Mg499       O528   2.249       .  S
O501        C505   1.272       .  A
O502       Mg509   2.325       .  S
O503        C522   1.272       .  A
O504        C524   1.276       .  A
O504       Mg520   2.317       .  S
O506       Mg520   2.141       .  S
O506        C517   1.238       .  S
O507       Mg526   2.135       .  S
O508       Mg520   2.298       .  S
Mg509       O525   2.264       .  S
O510       Mg526   2.262       .  S
H511        C516   1.081       .  S
O512       Mg520   2.133       .  S
O512        C515   1.238       .  S
H513        C515   1.081       .  S
H514        C517   1.081       .  S
O519       Mg526   2.300       .  S
C522        O527   1.274       .  A
C522        C541   1.479       .  S
O523        C524   1.272       .  A
C524        C580   1.475       .  S
C529        C530   1.404   1_655  A
C529        C534   1.415       .  A
C530        H539   1.084       .  S
C531        C532   1.416       .  A
C531        S535   1.804       .  S
C532        C533   1.402       .  A
C533        H540   1.084       .  S
C534        S536   1.799       .  S
S535        H538   1.407       .  S
S536        H537   1.407       .  S
C541        C542   1.406       .  A
C541        C546   1.413       .  A
C542        H551   1.084       .  S
C542        C543   1.397       .  A
C543        C544   1.414       .  A
C543        S547   1.804       .  S
C544        C545   1.407       .  A
C545        H552   1.084       .  S
C545        C546   1.397       .  A
C546        S548   1.804       .  S
S547        H550   1.407       .  S
S548        H549   1.407       .  S
C553        C554   1.406       .  A
C553        C558   1.413       .  A
C554        H563   1.084       .  S
C555        C556   1.414       .  A
C555        S559   1.803       .  S
C556        C557   1.403       .  A
C557        H564   1.084       .  S
C558        S560   1.802       .  S
S559        H562   1.406       .  S
S560        H561   1.405       .  S
C565        C566   1.404       .  A
C565        C570   1.414       .  A
C566        H575   1.084       .  S
C567        C568   1.411       .  A
C567        S571   1.802       .  S
C568        C569   1.404       .  A
C569        H576   1.084       .  S
C570        S572   1.803       .  S
S571        H574   1.405       .  S
S572        H573   1.406       .  S
C577        C578   1.404       .  A
C577        C582   1.414       .  A
C578        H587   1.084       .  S
C578        C579   1.398       .  A
C579        C580   1.411       .  A
C579        S583   1.801       .  S
C580        C581   1.404       .  A
C581        H588   1.084       .  S
C581        C582   1.403       .  A
C582        S584   1.803       .  S
S583        H586   1.406       .  S
S584        H585   1.407       .  S
C589        C590   1.406       .  A
C589        C594   1.412       .  A
C590        H599   1.084       .  S
C590        C591   1.404       .  A
C591        C592   1.413       .  A
C591        S595   1.803       .  S
C592        C593   1.403       .  A
C593        H600   1.084       .  S
C593        C594   1.398       .  A
C594        S596   1.800       .  S
S595        H598   1.406       .  S
S596        H597   1.407       .  S
C601        C602   1.401       .  A
C601        C606   1.414       .  A
C602        H611   1.084       .  S
C603        C604   1.415       .  A
C603        S607   1.803       .  S
C604        C605   1.404       .  A
C605        H612   1.084       .  S
C606        S608   1.802       .  S
S607        H610   1.406       .  S
S608        H609   1.406       .  S
C613        C614   1.403       .  A
C613        C618   1.414       .  A
C614        H623   1.084       .  S
C615        C616   1.412       .  A
C615        S619   1.801       .  S
C616        C617   1.404       .  A
C617        H624   1.084       .  S
C618        S620   1.803       .  S
S619        H622   1.405       .  S
S620        H621   1.406       .  S
C625        C626   1.404       .  A
C625        C630   1.412       .  A
C626        H635   1.084       .  S
C626        C627   1.403       .  A
C627        C628   1.414       .  A
C627        S631   1.803       .  S
C628        C629   1.403       .  A
C629        H636   1.084       .  S
C629        C630   1.397       .  A
C630        S632   1.801       .  S
S631        H634   1.406       .  S
S632        H633   1.405       .  S
C637        C638   1.403       .  A
C637        C642   1.416       .  A
C638        H647   1.084       .  S
C638        C639   1.398       .  A
C639        C640   1.413       .  A
C639        S643   1.803       .  S
C640        C641   1.402       .  A
C641        H648   1.084       .  S
C641        C642   1.403       .  A
C642        S644   1.804       .  S
S643        H646   1.405       .  S
S644        H645   1.407       .  S
C649        C650   1.406       .  A
C649        C654   1.417   1_554  A
C650        H659   1.084       .  S
C651        C652   1.418       .  A
C651        S655   1.804       .  S
C652        C653   1.405   1_554  A
C653        H660   1.084       .  S
C654        S656   1.802       .  S
S655        H658   1.408       .  S
S656        H657   1.408   1_655  S
C661        C662   1.404   1_556  A
C661        C666   1.416       .  A
C662        H671   1.084       .  S
C662        C663   1.397       .  A
C663        C664   1.415       .  A
C663        S667   1.804       .  S
C664        C665   1.403   1_554  A
C665        H672   1.084       .  S
C665        C666   1.397       .  A
C666        S668   1.803       .  S
S667        H670   1.408       .  S
S668        H669   1.408       .  S
