geometry optimzed in LAMMPS
_audit_creation_date              2020-11-30 
_audit_creation_method            'lammps2cif' 
_symmetry_space_group_name_H-M    'P1' 
_symmetry_Int_Tables_number       1 
_symmetry_cell_setting            triclinic 
loop_ 
_symmetry_equiv_pos_as_xyz 
  x,y,z 
_cell_length_a                    37.98292331 
_cell_length_b                    39.07949360055068 
_cell_length_c                    36.57970325103839 
_cell_angle_alpha                 90.38016613355244 
_cell_angle_beta                  89.77914749248055 
_cell_angle_gamma                 90.28991483539527 
loop_ 
_atom_site_label 
_atom_site_type_symbol 
_atom_site_fract_x 
_atom_site_fract_y 
_atom_site_fract_z 
_atom_site_charge 
O1          O  0.83140301  0.59435789  0.48117997    -0.56400
C2          C  0.84752417  0.52678453  0.58018549     0.76200
O3          O  0.92543467  0.59033917  0.54274815    -0.57600
C4          C  0.84732966  0.62234583  0.47404260     0.76200
C5          C  0.82233074  0.63379541  0.58962822     0.78600
Cd6        Cd  0.85985183  0.58868353  0.54157846     1.37500
O7          O  0.83254996  0.53151547  0.54952359    -0.56400
O8          O  0.80713331  0.61197661  0.56915141    -0.55200
C9          C  0.92811373  0.56791040  0.51737851     0.78600
O10         O  0.85584655  0.63495761  0.58798976    -0.57600
O11         O  0.86633552  0.55104308  0.59263584    -0.56000
O12         O  0.86637853  0.63498185  0.49915166    -0.56000
O13         O  0.89963835  0.55586662  0.50471986    -0.55200
C14         C  0.90863642  0.30695161  0.70841677    -0.01100
C15         C  0.15896948  0.71658066  0.24980173    -0.01100
O16         O  0.25538609  0.51347915  0.42821500    -0.56400
C17         C  0.23826650  0.42309376  0.49964065     0.76200
O18         O  0.16862051  0.44715024  0.41718179    -0.57600
C19         C  0.24544313  0.51795510  0.39538576     0.76200
C20         C  0.27195484  0.40836379  0.38246081     0.78600
Cd21       Cd  0.23309976  0.45340924  0.42908496     1.37500
O22         O  0.25524431  0.45047410  0.49278746    -0.56400
O23         O  0.28706509  0.42971088  0.40359725    -0.55200
C24         C  0.16150454  0.47353781  0.43637444     0.78600
O25         O  0.23848952  0.40788518  0.38306958    -0.57600
O26         O  0.22217749  0.40886413  0.47340811    -0.56000
O27         O  0.23457502  0.49178541  0.37813798    -0.56000
O28         O  0.18695458  0.48840926  0.45201833    -0.55200
C29         C  0.88851528  0.70502362  0.21582243    -0.01100
O30         O  0.81527208  0.49660638  0.02858838    -0.56400
C31         C  0.83991541  0.40264021  0.95350751     0.76200
O32         O  0.91092092  0.44798614  0.02256055    -0.57600
C33         C  0.82937966  0.50059214  0.05998304     0.76200
C34         C  0.80905126  0.39544886  0.06594322     0.78600
Cd35       Cd  0.84598091  0.44135244  0.01914887     1.37500
O36         O  0.82065971  0.42895368  0.95841347    -0.56400
O37         O  0.79371206  0.41326939  0.04190592    -0.55200
C38         C  0.91120947  0.47275661  0.99995696     0.78600
O39         O  0.84239721  0.39866385  0.06839802    -0.57600
O40         O  0.86041399  0.39459462  0.97937670    -0.56000
O41         O  0.84858218  0.47658870  0.07157865    -0.56000
O42         O  0.88189977  0.48101282  0.98617758    -0.55200
C43         C  0.17483522  0.32813922  0.74986674    -0.01100
O44         O  0.22796481  0.62071213  0.97976825    -0.56400
C45         C  0.21987789  0.54619795  0.88737942     0.76200
O46         O  0.14190144  0.61221051  0.90083264    -0.57600
C47         C  0.20780873  0.64602451  0.98636187     0.76200
C48         C  0.25110245  0.65770185  0.87430258     0.78600
Cd49       Cd  0.20598453  0.61313415  0.91671519     1.37500
O50         O  0.22999965  0.55398486  0.91951119    -0.56400
O51         O  0.26248926  0.63636992  0.89733077    -0.55200
C52         C  0.13395098  0.59587905  0.92983981     0.78600
O53         O  0.21778476  0.65902036  0.87068083    -0.57600
O54         O  0.20595518  0.56987730  0.86898538    -0.56000
O55         O  0.19016615  0.65744355  0.95977754    -0.56000
O56         O  0.15882340  0.58879455  0.95129253    -0.55200
C57         C  0.67787804  0.81990169  0.70916232    -0.01100
O58         O  0.74529953  0.03064304  0.52616957    -0.56400
C59         C  0.72970512  0.13012235  0.46197577     0.76200
O60         O  0.65526561  0.08952560  0.53234644    -0.57600
C61         C  0.73376268  0.02475121  0.55831354     0.76200
C62         C  0.76297709  0.13108532  0.57223108     0.78600
Cd63       Cd  0.72063237  0.08942949  0.52559407     1.37500
O64         O  0.74659510  0.10216655  0.46516947    -0.56400
O65         O  0.77572200  0.11108552  0.54817217    -0.55200
C66         C  0.65141575  0.06784652  0.50637140     0.78600
O67         O  0.72951286  0.13154456  0.57536997    -0.57600
O68         O  0.71036899  0.13897028  0.48872134    -0.56000
O69         O  0.71863624  0.04922615  0.57488518    -0.56000
O70         O  0.67912732  0.05821909  0.49004778    -0.55200
C71         C  0.40655333  0.22167534  0.25120320    -0.01100
O72         O  0.32370243  0.00365712  0.42023671    -0.56400
C73         C  0.33648902  0.91305058  0.49376819     0.76200
O74         O  0.33761519  0.89645542  0.38013757    -0.57600
C75         C  0.33608346  0.00760621  0.38812650     0.76200
C76         C  0.41785307  0.96046724  0.44082979     0.78600
Cd77       Cd  0.34620334  0.94419811  0.42448779     1.37500
O78         O  0.32152000  0.94151188  0.48735968    -0.56400
O79         O  0.39208638  0.97020855  0.46014227    -0.55200
C80         C  0.30414622  0.89822749  0.38079072     0.78600
O81         O  0.41093050  0.94175979  0.41306950    -0.57600
O82         O  0.35306570  0.89919149  0.46747802    -0.56000
O83         O  0.35028071  0.98180949  0.37316467    -0.56000
O84         O  0.29096220  0.92102360  0.40150684    -0.55200
C85         C  0.67291128  0.21814185  0.21341029    -0.01100
O86         O  0.74937050  0.94244381  0.97046172    -0.56400
C87         C  0.72323835  0.00484931  0.06525479     0.76200
O88         O  0.65604248  0.93567144  0.03816131    -0.57600
C89         C  0.73933896  0.91259789  0.96087514     0.76200
C90         C  0.75573822  0.89159793  0.07997746     0.78600
Cd91       Cd  0.72141209  0.93880811  0.03139053     1.37500
O92         O  0.74711770  0.99720985  0.04207587    -0.56400
O93         O  0.77130304  0.91784095  0.06742365    -0.55200
C94         C  0.65078466  0.95381811  0.00990003     0.78600
O95         O  0.72359977  0.88779419  0.07117338    -0.57600
O96         O  0.70232511  0.98113171  0.07454761    -0.56000
O97         O  0.72495364  0.89419382  0.98509407    -0.56000
O98         O  0.67761435  0.96175769  0.99120366    -0.55200
C99         C  0.40874866  0.82698021  0.74126553    -0.01100
O100        O  0.33420276  0.04924205  0.90891036    -0.56400
C101        C  0.35001853  0.13704885  0.99603050     0.76200
O102        O  0.42568577  0.10374091  0.92608108    -0.57600
C103        C  0.35647534  0.04563777  0.88289211     0.76200
C104        C  0.32125245  0.14923563  0.87985699     0.78600
Cd105      Cd  0.36038462  0.10506325  0.92660042     1.37500
O106        O  0.33354216  0.10941043  0.98826556    -0.56400
O107        O  0.30671406  0.12610144  0.89903380    -0.55200
C108        C  0.42665185  0.07746773  0.94669946     0.78600
O109        O  0.35462533  0.15208555  0.88236989    -0.57600
O110        O  0.36919798  0.14979270  0.97104499    -0.56000
O111        O  0.37714896  0.07045451  0.87631333    -0.56000
O112        O  0.39743037  0.06643462  0.95891139    -0.55200
C113        C  0.40451021  0.92202494  0.77134785    -0.26800
C114        C  0.37906927  0.92182681  0.79921969     0.06800
C115        C  0.36140815  0.89109724  0.80696427     0.26400
C116        C  0.37027835  0.86100553  0.78836093    -0.11300
C117        C  0.39829085  0.86011248  0.76264837    -0.25200
C118        C  0.41400880  0.89189516  0.75330896     0.37200
C119        C  0.37239597  0.95343276  0.82089050     0.06800
F120        F  0.33608941  0.88978981  0.83320930    -0.19000
H121        H  0.35433501  0.83873087  0.79410755     0.16700
F122        F  0.43929588  0.89385148  0.72711083    -0.22700
H123        H  0.41750306  0.94568515  0.76370492     0.18400
C124        C  0.40093080  0.97306895  0.83382595     0.26400
C125        C  0.39501866  0.00293356  0.85376112    -0.11200
C126        C  0.36069468  0.01356096  0.86212803    -0.25300
C127        C  0.33201143  0.99378446  0.85012978     0.37400
C128        C  0.33786887  0.96411491  0.82921449    -0.26900
F129        F  0.43467006  0.96298153  0.82803754    -0.19000
H130        H  0.41753715  0.01760566  0.86333757     0.16700
F131        F  0.29853895  0.00373373  0.85749877    -0.22700
H132        H  0.31540283  0.94972824  0.81914896     0.18500
C133        C  0.55788336  0.98859854  0.01617558    -0.26800
C134        C  0.55339129  0.00206165  0.98092019     0.06800
C135        C  0.58009751  0.99712556  0.95474991     0.26400
C136        C  0.61092565  0.97993286  0.96404958    -0.11300
C137        C  0.61581521  0.96714271  0.99952866    -0.25200
C138        C  0.58873667  0.97125674  0.02546849     0.37200
C139        C  0.52109322  0.02155490  0.97185317     0.06800
F140        F  0.57639806  0.00885643  0.92012918    -0.19000
H141        H  0.63140983  0.97717575  0.94349907     0.16700
F142        F  0.59280466  0.96026909  0.06030911    -0.22700
H143        H  0.53783300  0.99245206  0.03698393     0.18400
C144        C  0.48765452  0.00826115  0.98030645     0.26400
C145        C  0.45742526  0.02693939  0.97242281    -0.11200
C146        C  0.45965593  0.05918726  0.95561012    -0.25300
C147        C  0.49310521  0.07239537  0.94672110     0.37400
C148        C  0.52349203  0.05376905  0.95498464    -0.26900
F149        F  0.48410934  0.97674586  0.99532891    -0.19000
H150        H  0.43203238  0.01573321  0.97906422     0.16700
F151        F  0.49653924  0.10329837  0.93034960    -0.22700
H152        H  0.54904514  0.06471667  0.94851047     0.18500
C153        C  0.71746062  0.13678809  0.17150566    -0.26800
C154        C  0.70110264  0.13453206  0.13743609     0.06800
C155        C  0.67735405  0.16017654  0.12733739     0.26400
C156        C  0.66981623  0.18721481  0.15143912    -0.11300
C157        C  0.68350535  0.18806591  0.18737592    -0.25200
C158        C  0.70928426  0.16304598  0.19607391     0.37200
C159        C  0.70718679  0.10384520  0.11425970     0.06800
F160        F  0.66127602  0.15897704  0.09427844    -0.19000
H161        H  0.65174675  0.20682805  0.14268776     0.16700
F162        F  0.72810360  0.16402103  0.22747906    -0.22700
H163        H  0.73628381  0.11755198  0.17956495     0.18400
C164        C  0.74148481  0.09317938  0.10491213     0.26400
C165        C  0.74689913  0.06144609  0.08763103    -0.11200
C166        C  0.71824861  0.03972269  0.08023304    -0.25300
C167        C  0.68391315  0.05114663  0.08821940     0.37400
C168        C  0.67853629  0.08291000  0.10490347    -0.26900
F169        F  0.76970451  0.11319545  0.11312984    -0.19000
H170        H  0.77348181  0.05330404  0.08134072     0.16700
F171        F  0.65540959  0.03143699  0.08007913    -0.22700
H172        H  0.65196212  0.09053809  0.11197926     0.18500
C173        C  0.35615891  0.85028234  0.56874915    -0.26800
C174        C  0.35220503  0.87072677  0.59999688     0.06800
C175        C  0.33870568  0.90398655  0.59665843     0.26400
C176        C  0.33109896  0.91712488  0.56200177    -0.11300
C177        C  0.33704285  0.89724551  0.53040644    -0.25200
C178        C  0.34852343  0.86321928  0.53428798     0.37200
C179        C  0.36617251  0.85837492  0.63504232     0.06800
F180        F  0.33526123  0.92446693  0.62656873    -0.19000
H181        H  0.32261512  0.94344534  0.55975694     0.16700
F182        F  0.35392219  0.84280605  0.50464362    -0.22700
H183        H  0.36648866  0.82456563  0.57098994     0.18400
C184        C  0.34408237  0.85145569  0.66471865     0.26400
C185        C  0.35833044  0.84010264  0.69762030    -0.11200
C186        C  0.39510434  0.83518449  0.70207637    -0.25300
C187        C  0.41706587  0.84351363  0.67173512     0.37400
C188        C  0.40247546  0.85403117  0.63871691    -0.26900
F189        F  0.30876069  0.85572274  0.66190840    -0.19000
H190        H  0.34048705  0.83560226  0.72022584     0.16700
F191        F  0.45260332  0.84509943  0.67396793    -0.22700
H192        H  0.41985847  0.86033167  0.61618451     0.18500
C193        C  0.36738104  0.19905959  0.07385196    -0.26800
C194        C  0.35917169  0.17895518  0.10434156     0.06800
C195        C  0.34348769  0.14664649  0.09895705     0.26400
C196        C  0.33837033  0.13385537  0.06345341    -0.11300
C197        C  0.34891109  0.15304898  0.03289325    -0.25200
C198        C  0.36234107  0.18637361  0.03848104     0.37200
C199        C  0.37064270  0.19039819  0.14111906     0.06800
F200        F  0.33552209  0.12649047  0.12793807    -0.19000
H201        H  0.32805098  0.10816187  0.05996019     0.16700
F202        F  0.37191821  0.20632183  0.00983339    -0.22700
H203        H  0.37904239  0.22419218  0.07750488     0.18400
C204        C  0.40629975  0.19737960  0.14751637     0.26400
C205        C  0.41784983  0.20698681  0.18224573    -0.11200
C206        C  0.39400916  0.21184052  0.21170874    -0.25300
C207        C  0.35801361  0.20376627  0.20485491     0.37400
C208        C  0.34669947  0.19324900  0.17012050    -0.26900
F209        F  0.43043698  0.19348495  0.12034239    -0.19000
H210        H  0.44586904  0.20919196  0.18548137     0.16700
F211        F  0.33353875  0.20587569  0.23188348    -0.22700
H212        H  0.31914064  0.18747456  0.16581985     0.18500
C213        C  0.57092432  0.20293296  0.21480695    -0.26800
C214        C  0.55900194  0.23266127  0.23224849     0.06800
C215        C  0.58350749  0.25795691  0.24201660     0.26400
C216        C  0.61949793  0.25292002  0.23520596    -0.11300
C217        C  0.63212892  0.22338623  0.21665066    -0.25200
C218        C  0.60664705  0.19802127  0.20715721     0.37200
C219        C  0.52128628  0.23505068  0.24260012     0.06800
F220        F  0.57284222  0.28684469  0.25953240    -0.19000
H221        H  0.63791069  0.27226754  0.24477937     0.16700
F222        F  0.61562653  0.16695940  0.19345417    -0.22700
H223        H  0.55233520  0.18270713  0.20797143     0.18400
C224        C  0.49834684  0.25759841  0.22510138     0.26400
C225        C  0.46186150  0.25464194  0.23056637    -0.11200
C226        C  0.44728353  0.22820052  0.25238040    -0.25300
C227        C  0.47122613  0.20952986  0.27426547     0.37400
C228        C  0.50753403  0.21224777  0.26836166    -0.26900
F229        F  0.51096730  0.28088840  0.20094839    -0.19000
H230        H  0.44465748  0.27121066  0.21523002     0.16700
F231        F  0.46038603  0.18913722  0.30197222    -0.22700
H232        H  0.52511168  0.19598788  0.28365254     0.18500
C233        C  0.34949784  0.10171180  0.36973755    -0.26800
C234        C  0.35388985  0.10145815  0.33149680     0.06800
C235        C  0.34694406  0.07099578  0.31204725     0.26400
C236        C  0.33871836  0.04096947  0.33072184    -0.11300
C237        C  0.33645702  0.04075652  0.36904056    -0.25200
C238        C  0.34048330  0.07170812  0.38839396     0.37200
C239        C  0.36756104  0.13223227  0.31227637     0.06800
F240        F  0.34885994  0.07000982  0.27498769    -0.19000
H241        H  0.33533269  0.01750080  0.31522716     0.16700
F242        F  0.33858514  0.07246177  0.42544796    -0.22700
H243        H  0.35479564  0.12470925  0.38542492     0.18400
C244        C  0.35429270  0.16489727  0.32004195     0.26400
C245        C  0.36749196  0.19353886  0.30183118    -0.11200
C246        C  0.39443434  0.19073522  0.27497059    -0.25300
C247        C  0.40681640  0.15739977  0.26678534     0.37400
C248        C  0.39420320  0.12894399  0.28578789    -0.26900
F249        F  0.32725275  0.16908076  0.34401460    -0.19000
H250        H  0.35469075  0.21748471  0.30786147     0.16700
F251        F  0.43145234  0.15229889  0.24034807    -0.22700
H252        H  0.40531973  0.10412163  0.27957055     0.18500
C253        C  0.68428914  0.17269077  0.30576747    -0.26800
C254        C  0.70612998  0.19505663  0.32519629     0.06800
C255        C  0.71475856  0.22693310  0.31017307     0.26400
C256        C  0.70353130  0.23513448  0.27480260    -0.11300
C257        C  0.68391592  0.21137994  0.25355839    -0.25200
C258        C  0.67263024  0.18087235  0.27094701     0.37200
C259        C  0.71915547  0.18402030  0.36112017     0.06800
F260        F  0.73457400  0.24974154  0.32934644    -0.19000
H261        H  0.71045972  0.26008966  0.26427932     0.16700
F262        F  0.65232791  0.15747845  0.25330462    -0.22700
H263        H  0.67654331  0.14837124  0.31755849     0.18400
C264        C  0.70455217  0.19742460  0.39334878     0.26400
C265        C  0.71021502  0.18098267  0.42661072    -0.11200
C266        C  0.73040702  0.15086620  0.42820068    -0.25300
C267        C  0.74740519  0.13922630  0.39625050     0.37400
C268        C  0.74153375  0.15561673  0.36297517    -0.26900
F269        F  0.68245403  0.22458870  0.39219490    -0.19000
H270        H  0.69703569  0.19077681  0.45080662     0.16700
F271        F  0.76778789  0.11081069  0.39657234    -0.22700
H272        H  0.75289615  0.14498150  0.33817197     0.18500
C273        C  0.49513085  0.99329665  0.49569851    -0.26800
C274        C  0.51811086  0.00441491  0.46800516     0.06800
C275        C  0.50896979  0.99810830  0.43119742     0.26400
C276        C  0.47723876  0.98169625  0.42250319    -0.11300
C277        C  0.45372609  0.97201660  0.45018617    -0.25200
C278        C  0.46309574  0.97758386  0.48695397     0.37200
C279        C  0.55177224  0.02185200  0.47758744     0.06800
F280        F  0.52988054  0.00924272  0.40351244    -0.19000
H281        H  0.47019896  0.97820024  0.39404103     0.16700
F282        F  0.44114788  0.96798111  0.51447121    -0.22700
H283        H  0.50190841  0.99687932  0.52418561     0.18400
C284        C  0.55335095  0.04796413  0.50438525     0.26400
C285        C  0.58564723  0.06335225  0.51340377    -0.11200
C286        C  0.61680451  0.05326098  0.49565696    -0.25300
C287        C  0.61490389  0.02769440  0.46828786     0.37400
C288        C  0.58291685  0.01200980  0.45986599    -0.26900
F289        F  0.52368502  0.05897943  0.52148882    -0.19000
H290        H  0.58627778  0.08303502  0.53435329     0.16700
F291        F  0.64402766  0.01722307  0.44981258    -0.22700
H292        H  0.58266856  0.99162983  0.43967158     0.18500
C293        C  0.69720881  0.82856106  0.81325388    -0.26800
C294        C  0.71345796  0.86086622  0.81591214     0.06800
C295        C  0.71799339  0.87998602  0.78392244     0.26400
C296        C  0.70540207  0.86776351  0.75057840    -0.11300
C297        C  0.69082664  0.83445607  0.74681302    -0.25200
C298        C  0.68594628  0.81554352  0.77941046     0.37200
C299        C  0.72402895  0.87517966  0.85213797     0.06800
F300        F  0.73501906  0.91061636  0.78458513    -0.19000
H301        H  0.70702169  0.88535367  0.72805963     0.16700
F302        F  0.67041957  0.78420463  0.77855871    -0.22700
H303        H  0.69270830  0.81348428  0.83757541     0.18400
C304        C  0.71587992  0.90923897  0.86184073     0.26400
C305        C  0.72461188  0.92211871  0.89632366    -0.11200
C306        C  0.73995886  0.90101486  0.92254029    -0.25300
C307        C  0.74833825  0.86708398  0.91313347     0.37400
C308        C  0.74093550  0.85448164  0.87800398    -0.26900
F309        F  0.69691986  0.92937475  0.83921437    -0.19000
H310        H  0.71662589  0.94785184  0.90358168     0.16700
F311        F  0.76278156  0.84594177  0.93819427    -0.22700
H312        H  0.74757465  0.82828678  0.87132070     0.18500
C313        C  0.58189655  0.78411285  0.72276490    -0.26800
C314        C  0.56265202  0.81431731  0.72812059     0.06800
C315        C  0.58106462  0.84566947  0.72716401     0.26400
C316        C  0.61748987  0.84655462  0.72110812    -0.11300
C317        C  0.63704976  0.81650970  0.71403487    -0.25200
C318        C  0.61835879  0.78489164  0.71613309     0.37200
C319        C  0.52373146  0.81325467  0.73541062     0.06800
F320        F  0.56379419  0.87577197  0.73138922    -0.19000
H321        H  0.63063171  0.87121455  0.72124318     0.16700
F322        F  0.63493684  0.75430348  0.71433933    -0.22700
H323        H  0.56883352  0.75950986  0.72485607     0.18400
C324        C  0.50072350  0.79218473  0.71500737     0.26400
C325        C  0.46405553  0.79467309  0.71975090    -0.11200
C326        C  0.44918674  0.81988598  0.74293908    -0.25300
C327        C  0.47259243  0.83685486  0.76733199     0.37400
C328        C  0.50911086  0.83397368  0.76297841    -0.26900
F329        F  0.51336363  0.77084846  0.68870814    -0.19000
H330        H  0.44708763  0.77916712  0.70253939     0.16700
F331        F  0.46078543  0.85569234  0.79609342    -0.22700
H332        H  0.52612459  0.84829180  0.78126590     0.18500
C333        C  0.67832407  0.88513426  0.62830705    -0.26800
C334        C  0.71372629  0.89536221  0.62853988     0.06800
C335        C  0.73763628  0.87749160  0.65009546     0.26400
C336        C  0.72572147  0.85153130  0.67314782    -0.11300
C337        C  0.68926488  0.84435830  0.67747093    -0.25200
C338        C  0.66611061  0.85954863  0.65193602     0.37200
C339        C  0.72453276  0.92708599  0.60974367     0.06800
F340        F  0.77227679  0.88621452  0.65009596    -0.19000
H341        H  0.74481668  0.83900886  0.69032435     0.16700
F342        F  0.63203387  0.84961751  0.64865098    -0.22700
H343        H  0.65978865  0.89790365  0.61065659     0.18400
C344        C  0.72549940  0.92918594  0.57143584     0.26400
C345        C  0.73143511  0.96081730  0.55448283    -0.11200
C346        C  0.73562997  0.99073539  0.57561452    -0.25300
C347        C  0.73625051  0.98814515  0.61397126     0.37400
C348        C  0.73104924  0.95653144  0.63076593    -0.26900
F349        F  0.71956828  0.90091356  0.55057953    -0.19000
H350        H  0.73054728  0.96226085  0.52494469     0.16700
F351        F  0.74060146  0.01641249  0.63529568    -0.22700
H352        H  0.73039675  0.95527488  0.66033656     0.18500
C353        C  0.33589046  0.69555497  0.83548328    -0.26800
C354        C  0.32334068  0.72216130  0.81369136     0.06800
C355        C  0.28675457  0.72732618  0.81141348     0.26400
C356        C  0.26329281  0.70629535  0.83091727    -0.11300
C357        C  0.27586146  0.67969664  0.85300520    -0.25200
C358        C  0.31258124  0.67445905  0.85480955     0.37200
C359        C  0.34854929  0.74498338  0.79425446     0.06800
F360        F  0.27379355  0.75338398  0.79121638    -0.19000
H361        H  0.23528711  0.71108989  0.82905385     0.16700
F362        F  0.32618384  0.64881638  0.87513290    -0.22700
H363        H  0.36396174  0.69103294  0.83744215     0.18400
C364        C  0.37371678  0.76414730  0.81368060     0.26400
C365        C  0.39517788  0.78787058  0.79552000    -0.11200
C366        C  0.39082812  0.79450802  0.75784015    -0.25300
C367        C  0.36934791  0.77123431  0.73781536     0.37400
C368        C  0.34770472  0.74765755  0.75608113    -0.26900
F369        F  0.37601019  0.76153743  0.85057879    -0.19000
H370        H  0.41303539  0.80348532  0.81162792     0.16700
F371        F  0.36943723  0.77041429  0.70074154    -0.22700
H372        H  0.33014755  0.73137706  0.74034213     0.18500
C373        C  0.29386634  0.22138427  0.81663414    -0.26800
C374        C  0.25710526  0.21694223  0.81539256     0.06800
C375        C  0.24209981  0.18865417  0.83343612     0.26400
C376        C  0.26320409  0.16663341  0.85381464    -0.11300
C377        C  0.29981601  0.17184911  0.85624186    -0.25200
C378        C  0.31506350  0.19906984  0.83663363     0.37200
C379        C  0.23473310  0.24269164  0.79662606     0.06800
F380        F  0.20703650  0.18208575  0.83122280    -0.19000
H381        H  0.25071784  0.14553384  0.86795466     0.16700
F382        F  0.35033916  0.20467430  0.83733381    -0.22700
H383        H  0.30619175  0.24283936  0.80292718     0.18400
C384        C  0.20497710  0.25652918  0.81404470     0.26400
C385        C  0.18550655  0.28221517  0.79730858    -0.11200
C386        C  0.19516636  0.29588851  0.76295060    -0.25300
C387        C  0.22587399  0.28231467  0.74601276     0.37400
C388        C  0.24463474  0.25568892  0.76238588    -0.26900
F389        F  0.19590356  0.24693232  0.84842451    -0.19000
H390        H  0.16324433  0.29269705  0.81211140     0.16700
F391        F  0.24005423  0.29597688  0.71535978    -0.22700
H392        H  0.26792394  0.24599302  0.74872903     0.18500
C393        C  0.17116684  0.39814374  0.82678423    -0.26800
C394        C  0.20538830  0.41159922  0.82422364     0.06800
C395        C  0.23030923  0.39450948  0.80270293     0.26400
C396        C  0.22033259  0.36605324  0.78187206    -0.11300
C397        C  0.18464617  0.35531778  0.77973548    -0.25200
C398        C  0.16084090  0.36997363  0.80527834     0.37200
C399        C  0.21383293  0.44523600  0.84089426     0.06800
F400        F  0.26392455  0.40631701  0.80049596    -0.19000
H401        H  0.24003329  0.35419775  0.76455486     0.16700
F402        F  0.12788989  0.35732059  0.81017132    -0.22700
H403        H  0.15197139  0.41033977  0.84448742     0.18400
C404        C  0.21807642  0.47395319  0.81840316     0.26400
C405        C  0.22187126  0.50655254  0.83384348    -0.11200
C406        C  0.22218641  0.51111128  0.87198803    -0.25300
C407        C  0.22002956  0.48206816  0.89452105     0.37400
C408        C  0.21542102  0.44940848  0.87898874    -0.26900
F409        F  0.21663131  0.47064860  0.78146108    -0.19000
H410        H  0.22347481  0.52842412  0.81590916     0.16700
F411        F  0.22004754  0.48541709  0.93146624    -0.22700
H412        H  0.21226743  0.42747959  0.89664216     0.18500
C413        C  0.73723005  0.33598258  0.10022189    -0.26800
C414        C  0.74938196  0.32738380  0.13521692     0.06800
C415        C  0.78143453  0.34186662  0.14739579     0.26400
C416        C  0.80101303  0.36357529  0.12462256    -0.11300
C417        C  0.78863431  0.37209391  0.08976318    -0.25200
C418        C  0.75621277  0.35847009  0.07800019     0.37200
C419        C  0.72953814  0.30192948  0.15767917     0.06800
F420        F  0.79362965  0.33553561  0.18150453    -0.19000
H421        H  0.82560858  0.37423495  0.13452400     0.16700
F422        F  0.74328429  0.36598948  0.04446552    -0.22700
H423        H  0.71330756  0.32464536  0.08951940     0.18400
C424        C  0.69249047  0.30177289  0.15928426     0.26400
C425        C  0.67428618  0.27556694  0.17737497    -0.11200
C426        C  0.69231555  0.24948917  0.19624183    -0.25300
C427        C  0.72967285  0.25036002  0.19474158     0.37400
C428        C  0.74769171  0.27590921  0.17569140    -0.26900
F429        F  0.67360923  0.32680756  0.14305720    -0.19000
H430        H  0.64610038  0.27551697  0.17517380     0.16700
F431        F  0.74920979  0.22595520  0.21106117    -0.22700
H432        H  0.77599885  0.27454386  0.17410106     0.18500
C433        C  0.00624956  0.50410916  0.99555285    -0.26800
C434        C  0.00341976  0.53138073  0.97086185     0.06800
C435        C  0.97044032  0.53906065  0.95605190     0.26400
C436        C  0.94090000  0.51965651  0.96556804    -0.11300
C437        C  0.94353101  0.49210170  0.99002772    -0.25200
C438        C  0.97661918  0.48452129  0.00506647     0.37200
C439        C  0.03504006  0.55117850  0.95991481     0.06800
F440        F  0.96668139  0.56579369  0.93289949    -0.19000
H441        H  0.91576973  0.52644473  0.95378818     0.16700
F442        F  0.98043222  0.45829439  0.02883519    -0.22700
H443        H  0.03159815  0.49770470  0.00709129     0.18400
C444        C  0.05643925  0.56697991  0.98635147     0.26400
C445        C  0.08768732  0.58324796  0.97591083    -0.11200
C446        C  0.09799113  0.58431899  0.93896821    -0.25300
C447        C  0.07585717  0.56984604  0.91233526     0.37400
C448        C  0.04460036  0.55338829  0.92281890    -0.26900
F449        F  0.04728040  0.56638180  0.02226166    -0.19000
H450        H  0.10440959  0.59431185  0.99686985     0.16700
F451        F  0.08567607  0.56935083  0.87663014    -0.22700
H452        H  0.02848946  0.54114879  0.90207460     0.18500
C453        C  0.82444126  0.84996654  0.14058985    -0.26800
C454        C  0.81195983  0.81609165  0.14268514     0.06800
C455        C  0.78018703  0.80768549  0.12480096     0.26400
C456        C  0.76161149  0.83257943  0.10547959    -0.11300
C457        C  0.77449985  0.86622785  0.10282070    -0.25200
C458        C  0.80620350  0.87469082  0.12066877     0.37200
C459        C  0.83209725  0.78975991  0.16336391     0.06800
F460        F  0.76765657  0.77509017  0.12475073    -0.19000
H461        H  0.73753389  0.82519467  0.09158378     0.16700
F462        F  0.81951186  0.90695341  0.11919368    -0.22700
H463        H  0.84842096  0.85743831  0.15460270     0.18400
C464        C  0.86882661  0.78661436  0.15957311     0.26400
C465        C  0.88713534  0.76109334  0.17828498    -0.11200
C466        C  0.86949723  0.73737479  0.20109445    -0.25300
C467        C  0.83236189  0.74058673  0.20407543     0.37400
C468        C  0.81439034  0.76681547  0.18638120    -0.26900
F469        F  0.88693461  0.80690543  0.13602627    -0.19000
H470        H  0.91508255  0.75892842  0.17289929     0.16700
F471        F  0.81286918  0.71778660  0.22339796    -0.22700
H472        H  0.78613477  0.76870893  0.19021729     0.18500
C473        C  0.87077426  0.64721217  0.13077608    -0.26800
C474        C  0.84575661  0.62386081  0.14422372     0.06800
C475        C  0.83287379  0.62836631  0.17984807     0.26400
C476        C  0.84685194  0.65372562  0.20246902    -0.11300
C477        C  0.87426678  0.67582205  0.19052425    -0.25200
C478        C  0.88402367  0.67352172  0.15314665     0.37200
C479        C  0.83582586  0.59292519  0.12280333     0.06800
F480        F  0.80657378  0.60814058  0.19292825    -0.19000
H481        H  0.83528796  0.65608077  0.22933446     0.16700
F482        F  0.90716942  0.69610805  0.13834084    -0.22700
H483        H  0.88082992  0.64458976  0.10322188     0.18400
C484        C  0.82716227  0.59439064  0.08543051     0.26400
C485        C  0.82218385  0.56410163  0.06523278    -0.11200
C486        C  0.82598327  0.53212598  0.08204828    -0.25300
C487        C  0.83237624  0.53087056  0.11985871     0.37400
C488        C  0.83740438  0.56089434  0.13982100    -0.26900
F489        F  0.82432874  0.62495387  0.06833054    -0.19000
H490        H  0.81738365  0.56563919  0.03614557     0.16700
F491        F  0.83541654  0.50048276  0.13734721    -0.22700
H492        H  0.84427236  0.55894782  0.16841520     0.18500
C493        C  0.34833116  0.36492506  0.33406490    -0.26800
C494        C  0.33138223  0.33750456  0.31641727     0.06800
C495        C  0.29457809  0.33430671  0.31933765     0.26400
C496        C  0.27532501  0.35788253  0.34017548    -0.11300
C497        C  0.29239761  0.38488058  0.35864605    -0.25200
C498        C  0.32916204  0.38846640  0.35489657     0.37200
C499        C  0.35262601  0.31096592  0.29763269     0.06800
F500        F  0.27744322  0.30746840  0.30359337    -0.19000
H501        H  0.24706549  0.35442642  0.34265587     0.16700
F502        F  0.34677382  0.41449298  0.37157627    -0.22700
H503        H  0.37670017  0.36784836  0.33204795     0.18400
C504        C  0.34587820  0.30110935  0.26137700     0.26400
C505        C  0.36492621  0.27443287  0.24513167    -0.11200
C506        C  0.38965979  0.25544495  0.26542948    -0.25300
C507        C  0.39813820  0.26767249  0.30092391     0.37400
C508        C  0.37976528  0.29488870  0.31663870    -0.26900
F509        F  0.32079739  0.31723611  0.24164906    -0.19000
H510        H  0.35926217  0.26851197  0.21690192     0.16700
F511        F  0.42257545  0.25170295  0.32160498    -0.22700
H512        H  0.38576595  0.30247226  0.34448502     0.18500
C513        C  0.19849213  0.41116688  0.59246380    -0.26800
C514        C  0.21413881  0.38068919  0.60428929     0.06800
C515        C  0.23963698  0.36490443  0.58185419     0.26400
C516        C  0.24889984  0.37940639  0.54810012    -0.11300
C517        C  0.23345498  0.41013958  0.53688862    -0.25200
C518        C  0.20823702  0.42589881  0.55930491     0.37200
C519        C  0.20454343  0.36678113  0.64071168     0.06800
F520        F  0.25583365  0.33585342  0.59277460    -0.19000
H521        H  0.26779668  0.36657505  0.53060990     0.16700
F522        F  0.19177752  0.45477540  0.54820791    -0.22700
H523        H  0.17833805  0.42345578  0.60884793     0.18400
C524        C  0.20468033  0.38849528  0.67128499     0.26400
C525        C  0.19491737  0.37632084  0.70547303    -0.11200
C526        C  0.18603701  0.34145823  0.71125923    -0.25300
C527        C  0.18371448  0.32027286  0.67969841     0.37400
C528        C  0.19359517  0.33264322  0.64509946    -0.26900
F529        F  0.21435869  0.42185930  0.66824098    -0.19000
H530        H  0.19352968  0.39521031  0.72696931     0.16700
F531        F  0.17253024  0.28735109  0.68241658    -0.22700
H532        H  0.19208981  0.31574889  0.62165740     0.18500
C533        C  0.22293465  0.79423364  0.26248388    -0.26800
C534        C  0.21433943  0.80472757  0.29808878     0.06800
C535        C  0.18447777  0.79020274  0.31483873     0.26400
C536        C  0.16511281  0.76446481  0.29705321    -0.11300
C537        C  0.17502095  0.75169944  0.26223798    -0.25200
C538        C  0.20423594  0.76796846  0.24486788     0.37200
C539        C  0.23765509  0.82933632  0.31819256     0.06800
F540        F  0.17543398  0.79896831  0.34958516    -0.19000
H541        H  0.14351269  0.75253797  0.31182603     0.16700
F542        F  0.21771652  0.75687375  0.21259610    -0.22700
H543        H  0.24550380  0.80545435  0.24863525     0.18400
C544        C  0.27455656  0.82522934  0.31851228     0.26400
C545        C  0.29601956  0.84784189  0.33847474    -0.11200
C546        C  0.28130231  0.87491485  0.35876254    -0.25300
C547        C  0.24444938  0.87917677  0.35812271     0.37400
C548        C  0.22307000  0.85674200  0.33798490    -0.26900
F549        F  0.28989119  0.79865186  0.30055749    -0.19000
H550        H  0.32431057  0.84378316  0.33849017     0.16700
F551        F  0.22884470  0.90504455  0.37697522    -0.22700
H552        H  0.19478708  0.86091907  0.33780485     0.18500
C553        C  0.16549360  0.68732706  0.06935114    -0.26800
C554        C  0.19100327  0.68214662  0.09634971     0.06800
C555        C  0.22311190  0.66665547  0.08642797     0.26400
C556        C  0.22895726  0.65566193  0.05040868    -0.11300
C557        C  0.20318711  0.66041571  0.02356445    -0.25200
C558        C  0.17148386  0.67680274  0.03331759     0.37200
C559        C  0.18307784  0.69095405  0.13504678     0.06800
F560        F  0.24879575  0.66207894  0.11159588    -0.19000
H561        H  0.25349814  0.64319260  0.04357153     0.16700
F562        F  0.14535139  0.68099976  0.00854917    -0.22700
H563        H  0.14034431  0.69844402  0.07639529     0.18400
C564        C  0.16828255  0.72257885  0.14489701     0.26400
C565        C  0.16042990  0.72989838  0.18149084    -0.11200
C566        C  0.16833005  0.70657592  0.20968911    -0.25300
C567        C  0.18067400  0.67370280  0.19883226     0.37400
C568        C  0.18848090  0.66656097  0.16226638    -0.26900
F569        F  0.16204618  0.74675507  0.11929267    -0.19000
H570        H  0.14923894  0.75452373  0.18807739     0.16700
F571        F  0.18335977  0.64730599  0.22249430    -0.22700
H572        H  0.19776833  0.64132044  0.15502370     0.18500
C573        C  0.06237288  0.68485487  0.23964229    -0.26800
C574        C  0.04337619  0.71520312  0.23460179     0.06800
C575        C  0.06210505  0.74644152  0.23731019     0.26400
C576        C  0.09836508  0.74698969  0.24515993    -0.11300
C577        C  0.11776488  0.71645680  0.24942318    -0.25200
C578        C  0.09881526  0.68528233  0.24523282     0.37200
C579        C  0.00440975  0.71383467  0.22663769     0.06800
F580        F  0.04597957  0.77658886  0.23030861    -0.19000
H581        H  0.11152880  0.77156402  0.24548683     0.16700
F582        F  0.11557632  0.65473393  0.24558064    -0.22700
H583        H  0.04917521  0.66029693  0.23872476     0.18400
C584        C  0.98937443  0.68755066  0.20492604     0.26400
C585        C  0.95273280  0.68488949  0.20053698    -0.11200
C586        C  0.92953429  0.70925049  0.21598445    -0.25300
C587        C  0.94501422  0.73623182  0.23657790     0.37400
C588        C  0.98148747  0.73811185  0.24210112    -0.26900
F589        F  0.00994909  0.66407770  0.18777103    -0.19000
H590        H  0.94291857  0.66271477  0.18602668     0.16700
F591        F  0.92456037  0.76040377  0.25273247    -0.22700
H592        H  0.99156870  0.75820984  0.25971569     0.18500
C593        C  0.22686561  0.66051862  0.29996844    -0.26800
C594        C  0.20605334  0.64258539  0.32496036     0.06800
C595        C  0.17046871  0.65140680  0.32906018     0.26400
C596        C  0.15542123  0.67604316  0.30629473    -0.11300
C597        C  0.17524037  0.69146698  0.27794795    -0.25200
C598        C  0.21206055  0.68515623  0.27740110     0.37200
C599        C  0.22080745  0.61240780  0.34353777     0.06800
F600        F  0.14984662  0.63499293  0.35382019    -0.19000
H601        H  0.12806282  0.68234395  0.31063897     0.16700
F602        F  0.23353718  0.70081021  0.25293286    -0.22700
H603        H  0.25454806  0.65450989  0.29701029     0.18400
C604        C  0.23080459  0.58375020  0.32268107     0.26400
C605        C  0.24170177  0.55388116  0.33987683    -0.11200
C606        C  0.24313239  0.55201253  0.37818099    -0.25300
C607        C  0.23517549  0.58143615  0.39904924     0.37400
C608        C  0.22375267  0.61132775  0.38174763    -0.26900
F609        F  0.22786887  0.58394601  0.28569632    -0.19000
H610        H  0.24737187  0.53154986  0.32320181     0.16700
F611        F  0.23580340  0.58054629  0.43612207    -0.22700
H612        H  0.21632101  0.63332477  0.39815694     0.18500
C613        C  0.87967698  0.23953662  0.63736015    -0.26800
C614        C  0.85461802  0.22031221  0.65676214     0.06800
C615        C  0.85219214  0.22481788  0.69481131     0.26400
C616        C  0.87193621  0.25039143  0.71236123    -0.11300
C617        C  0.89332700  0.27322226  0.69213064    -0.25200
C618        C  0.89924394  0.26523386  0.65478123     0.37200
C619        C  0.83096428  0.19621156  0.63683890     0.06800
F620        F  0.83051874  0.20465223  0.71503636    -0.19000
H621        H  0.86938162  0.25267911  0.74169122     0.16700
F622        F  0.92137669  0.28454330  0.63416698    -0.22700
H623        H  0.88284910  0.23590604  0.60815932     0.18400
C624        C  0.79415204  0.19704373  0.64182779     0.26400
C625        C  0.77218056  0.17548323  0.62121820    -0.11200
C626        C  0.78637905  0.15294945  0.59502082    -0.25300
C627        C  0.82323289  0.15218969  0.59012817     0.37400
C628        C  0.84510025  0.17354069  0.61085439    -0.26900
F629        F  0.77925630  0.21971165  0.66544743    -0.19000
H630        H  0.74396108  0.17689377  0.62532802     0.16700
F631        F  0.83835166  0.13118508  0.56494640    -0.22700
H632        H  0.87331267  0.17249322  0.60641463     0.18500
C633        C  0.83148832  0.37860556  0.85320059    -0.26800
C634        C  0.85272633  0.34932358  0.85164081     0.06800
C635        C  0.86537827  0.33530933  0.88423330     0.26400
C636        C  0.85913450  0.35180160  0.91751526    -0.11300
C637        C  0.84019954  0.38262144  0.91898908    -0.25200
C638        C  0.82516623  0.39520773  0.88664248     0.37200
C639        C  0.86626966  0.33667242  0.81616116     0.06800
F640        F  0.88529766  0.30654741  0.88359810    -0.19000
H641        H  0.87055557  0.34116230  0.94202264     0.16700
F642        F  0.80646013  0.42469737  0.88684761    -0.22700
H643        H  0.82170235  0.38986627  0.82824424     0.18400
C644        C  0.84386169  0.32693471  0.78762796     0.26400
C645        C  0.85795936  0.31664695  0.75395299    -0.11200
C646        C  0.89484401  0.31533182  0.74770700    -0.25300
C647        C  0.91680398  0.32779765  0.77633606     0.37400
C648        C  0.90261050  0.33708078  0.81009870    -0.26900
F649        F  0.80839245  0.32754471  0.79221360    -0.19000
H650        H  0.83976765  0.30999414  0.73231133     0.16700
F651        F  0.95152970  0.33456279  0.77153104    -0.22700
H652        H  0.92016984  0.34653861  0.83124045     0.18500
C653        C  0.00218335  0.27967293  0.73767150    -0.26800
C654        C  0.02385803  0.30279991  0.71851943     0.06800
C655        C  0.00849135  0.32181141  0.69020406     0.26400
C656        C  0.97203806  0.32116051  0.68469085    -0.11300
C657        C  0.94947551  0.30204421  0.70766639    -0.25200
C658        C  0.96568939  0.27834057  0.73140568     0.37200
C659        C  0.06173198  0.30845551  0.72885362     0.06800
F660        F  0.02868894  0.34156515  0.66798158    -0.19000
H661        H  0.96167742  0.33655886  0.66278720     0.16700
F662        F  0.94577292  0.25665042  0.75176132    -0.22700
H663        H  0.01302859  0.26388733  0.75905800     0.18400
C664        C  0.08433873  0.28130140  0.73759173     0.26400
C665        C  0.11994632  0.28749296  0.74575818    -0.11200
C666        C  0.13441807  0.32104517  0.74594843    -0.25300
C667        C  0.11123419  0.34806390  0.73722162     0.37400
C668        C  0.07566441  0.34184460  0.72967617    -0.26900
F669        F  0.07264757  0.24843849  0.73645411    -0.19000
H670        H  0.13630736  0.26532419  0.75009470     0.16700
F671        F  0.12300083  0.38086437  0.73568478    -0.22700
H672        H  0.05889694  0.36356699  0.72408768     0.18500
C673        C  0.79506401  0.70866576  0.65031387    -0.26800
C674        C  0.75863782  0.70287683  0.65383363     0.06800
C675        C  0.74398785  0.67308967  0.63830462     0.26400
C676        C  0.76512825  0.65041419  0.61840153    -0.11300
C677        C  0.80134628  0.65680972  0.61360450    -0.25200
C678        C  0.81631000  0.68587417  0.63050008     0.37200
C679        C  0.73579321  0.72940783  0.67078995     0.06800
F680        F  0.70912211  0.66607743  0.64207254    -0.22200
H681        H  0.75292097  0.62801052  0.60619869     0.16700
F682        F  0.85109622  0.69313188  0.62663334    -0.22700
H683        H  0.80688382  0.73164162  0.66169460     0.18400
C684        C  0.74400614  0.74416981  0.70479029     0.26400
C685        C  0.72474345  0.77204065  0.71820006    -0.11200
C686        C  0.69603872  0.78562538  0.69846790    -0.25300
C687        C  0.68748694  0.76964295  0.66470810     0.37400
C688        C  0.70700747  0.74205019  0.65131179    -0.26900
F689        F  0.77124174  0.73209305  0.72478123    -0.19000
H690        H  0.73395934  0.78367498  0.74323372     0.16700
F691        F  0.66088107  0.78165265  0.64380437    -0.22700
H692        H  0.70046684  0.73144767  0.62474036     0.18500
C693        C  0.88229549  0.65491389  0.30615686    -0.26800
C694        C  0.86264827  0.67653620  0.32887174     0.06800
C695        C  0.85361880  0.70920077  0.31622765     0.26400
C696        C  0.86257481  0.71920211  0.28060777    -0.11300
C697        C  0.88017387  0.69655300  0.25650047    -0.25200
C698        C  0.89154836  0.66484101  0.27090069     0.37200
C699        C  0.85358459  0.66504089  0.36628307     0.06800
F700        F  0.83553710  0.73119702  0.33807233    -0.19000
H701        H  0.85556490  0.74471807  0.27218488     0.16700
F702        F  0.91032221  0.64247925  0.25013684    -0.22700
H703        H  0.89071142  0.63014186  0.31587524     0.18400
C704        C  0.83669329  0.63336383  0.37200175     0.26400
C705        C  0.83271450  0.62047602  0.40740036    -0.11200
C706        C  0.84585951  0.63873828  0.43764385    -0.25300
C707        C  0.86127212  0.67121779  0.43191514     0.37400
C708        C  0.86492052  0.68416992  0.39657859    -0.26900
F709        F  0.82492869  0.61446220  0.34322573    -0.19000
H710        H  0.82080430  0.59543702  0.41094620     0.16700
F711        F  0.87418679  0.68998072  0.46025143    -0.22700
H712        H  0.87825069  0.70850047  0.39273304     0.18500
C713        C  0.02607239  0.55187296  0.50458040    -0.26800
C714        C  0.02617149  0.52960226  0.47414302     0.06800
C715        C  0.99393980  0.52080310  0.45782094     0.26400
C716        C  0.96244718  0.53360283  0.47205133    -0.11300
C717        C  0.96227194  0.55572209  0.50261828    -0.25200
C718        C  0.99455406  0.56512254  0.51850002     0.37200
C719        C  0.05990974  0.51540341  0.46015568     0.06800
F720        F  0.99283975  0.50032943  0.42770757    -0.19000
H721        H  0.93801466  0.52616386  0.45889038     0.16700
F722        F  0.99575187  0.58663329  0.54774661    -0.22700
H723        H  0.05052039  0.55867621  0.51807449     0.18400
C724        C  0.08961498  0.53667971  0.45629762     0.26400
C725        C  0.12216741  0.52271152  0.44721209    -0.11200
C726        C  0.12578396  0.48741887  0.44094008    -0.25300
C727        C  0.09582750  0.46630609  0.44225207     0.37400
C728        C  0.06318818  0.48020041  0.45222880    -0.26900
F729        F  0.08730213  0.57101652  0.46157724    -0.19000
H730        H  0.14487077  0.53959048  0.44557830     0.16700
F731        F  0.09846483  0.43212288  0.43611138    -0.22700
H732        H  0.04076162  0.46316615  0.45516262     0.18500
C733        C  0.85327391  0.36883324  0.64809484    -0.26800
C734        C  0.87066868  0.40001959  0.65397695     0.06800
C735        C  0.89994900  0.40073719  0.67733446     0.26400
C736        C  0.91161088  0.37083897  0.69389815    -0.11300
C737        C  0.89592991  0.33867422  0.68643305    -0.25200
C738        C  0.86512152  0.33871009  0.66425704     0.37200
C739        C  0.85832668  0.43170788  0.63584473     0.06800
F740        F  0.91782325  0.43030305  0.68387113    -0.19000
H741        H  0.93342311  0.37287485  0.71279497     0.16700
F742        F  0.84432552  0.31067885  0.66002615    -0.22700
H743        H  0.82957540  0.36790548  0.63167780     0.18400
C744        C  0.85084319  0.43209500  0.59812645     0.26400
C745        C  0.84421273  0.46307198  0.58047678    -0.11200
C746        C  0.84544922  0.49406797  0.59998824    -0.25300
C747        C  0.85017380  0.49339524  0.63809372     0.37400
C748        C  0.85613765  0.46245314  0.65581474    -0.26900
F749        F  0.85256414  0.40298943  0.57776335    -0.19000
H750        H  0.84071020  0.46304117  0.55106987     0.16700
F751        F  0.85034533  0.52281973  0.65804786    -0.22700
H752        H  0.86036439  0.46270778  0.68510072     0.18500
loop_ 
_geom_bond_atom_site_label_1 
_geom_bond_atom_site_label_2 
_geom_bond_distance 
_geom_bond_site_symmetry_2 
_ccdc_geom_bond_type 
O1            C4   1.275       .  A
O1           Cd6   2.475       .  S
C2           O11   1.268       .  A
C2            O7   1.275       .  A
C2          C746   1.475       .  S
O3            C9   1.276       .  A
O3           Cd6   2.492       .  S
C4           O12   1.267       .  A
C4          C706   1.483       .  S
C5           O10   1.275       .  A
C5            O8   1.269       .  A
C5          C677   1.485       .  S
Cd6          O13   2.393       .  S
Cd6          O12   2.403       .  S
Cd6          O11   2.399       .  S
Cd6           O7   2.477       .  S
Cd6          O10   2.477       .  S
Cd6           O8   2.418       .  S
C9           O13   1.266       .  A
C9          C717   1.483       .  S
C14         C617   1.554       .  S
C14         C646   1.561       .  S
C14         C657   1.564       .  S
C14         C737   1.562       .  S
C15         C537   1.564       .  S
C15         C566   1.556       .  S
C15         C577   1.565       .  S
C15         C597   1.559       .  S
O16          C19   1.274       .  A
O16         Cd21   2.492       .  S
C17          O26   1.264       .  A
C17          O22   1.272       .  A
C17         C517   1.467       .  S
O18          C24   1.273       .  A
O18         Cd21   2.500       .  S
C19          O27   1.266       .  A
C19         C606   1.479       .  S
C20          O25   1.271       .  A
C20          O23   1.270       .  A
C20         C497   1.482       .  S
Cd21         O28   2.376       .  S
Cd21         O27   2.400       .  S
Cd21         O26   2.420       .  S
Cd21         O22   2.484       .  S
Cd21         O25   2.450       .  S
Cd21         O23   2.433       .  S
C24          O28   1.262       .  A
C24         C726   1.472       .  S
C29         C466   1.559       .  S
C29         C477   1.560       .  S
C29         C586   1.566       .  S
C29         C697   1.558       .  S
O30          C33   1.277       .  A
O30         Cd35   2.481       .  S
C31          O40   1.270       .  A
C31          O36   1.276       .  A
C31         C637   1.481       .  S
O32          C38   1.277   1_554  A
O32         Cd35   2.482       .  S
C33          O41   1.267       .  A
C33         C486   1.475       .  S
C34          O39   1.276       .  A
C34          O37   1.270       .  A
C34         C417   1.480       .  S
Cd35         O42   2.389   1_554  S
Cd35         O41   2.356       .  S
Cd35         O40   2.393   1_554  S
Cd35         O36   2.468   1_554  S
Cd35         O39   2.466       .  S
Cd35         O37   2.412       .  S
C38          O42   1.268       .  A
C38         C437   1.484       .  S
C43         C386   1.560       .  S
C43         C397   1.563       .  S
C43         C526   1.565       .  S
C43         C666   1.566       .  S
O44          C47   1.275       .  A
O44         Cd49   2.471       .  S
C45          O54   1.267       .  A
C45          O50   1.273       .  A
C45         C406   1.482       .  S
O46          C52   1.276       .  A
O46         Cd49   2.505       .  S
C47          O55   1.268       .  A
C47         C557   1.479   1_556  S
C48          O53   1.274       .  A
C48          O51   1.268       .  A
C48         C357   1.492       .  S
Cd49         O56   2.386       .  S
Cd49         O55   2.410       .  S
Cd49         O54   2.422       .  S
Cd49         O50   2.492       .  S
Cd49         O53   2.506       .  S
Cd49         O51   2.431       .  S
C52          O56   1.263       .  A
C52         C446   1.474       .  S
C57         C297   1.567       .  S
C57         C317   1.565       .  S
C57         C337   1.566       .  S
C57         C686   1.557       .  S
O58          C61   1.275       .  A
O58         Cd63   2.486       .  S
C59          O68   1.268       .  A
C59          O64   1.276       .  A
C59         C266   1.482       .  S
O60          C66   1.277       .  A
O60         Cd63   2.494       .  S
C61          O69   1.268       .  A
C61         C346   1.478   1_545  S
C62          O67   1.276       .  A
C62          O65   1.269       .  A
C62         C626   1.484       .  S
Cd63         O70   2.375       .  S
Cd63         O69   2.400       .  S
Cd63         O68   2.401       .  S
Cd63         O64   2.470       .  S
Cd63         O67   2.469       .  S
Cd63         O65   2.401       .  S
C66          O70   1.266       .  A
C66         C286   1.483       .  S
C71         C206   1.568       .  S
C71         C226   1.567       .  S
C71         C246   1.560       .  S
C71         C506   1.556       .  S
O72          C75   1.274       .  A
O72         Cd77   2.486   1_545  S
C73          O82   1.267       .  A
C73          O78   1.275       .  A
C73         C177   1.480       .  S
O74          C80   1.274       .  A
O74         Cd77   2.485       .  S
C75          O83   1.266   1_545  A
C75         C237   1.476       .  S
C76          O81   1.275       .  A
C76          O79   1.264       .  A
C76         C277   1.474       .  S
Cd77         O84   2.432       .  S
Cd77         O83   2.396       .  S
Cd77         O82   2.383       .  S
Cd77         O78   2.483       .  S
Cd77         O81   2.494       .  S
Cd77         O79   2.399       .  S
C80          O84   1.269       .  A
C80         C546   1.490       .  S
C85         C157   1.561       .  S
C85         C217   1.567       .  S
C85         C257   1.553       .  S
C85         C426   1.561       .  S
O86          C89   1.273       .  A
O86         Cd91   2.470   1_556  S
C87          O96   1.265   1_545  A
C87          O92   1.274   1_545  A
C87         C166   1.478       .  S
O88          C94   1.274       .  A
O88         Cd91   2.497       .  S
C89          O97   1.265       .  A
C89         C306   1.471       .  S
C90          O95   1.271       .  A
C90          O93   1.269       .  A
C90         C457   1.487       .  S
Cd91         O98   2.405   1_554  S
Cd91         O97   2.426   1_554  S
Cd91         O96   2.392       .  S
Cd91         O92   2.507       .  S
Cd91         O95   2.478       .  S
Cd91         O93   2.459       .  S
C94          O98   1.264   1_554  A
C94         C137   1.481   1_554  S
C99         C117   1.561       .  S
C99         C186   1.562       .  S
C99         C326   1.564       .  S
C99         C366   1.562       .  S
O100        C103   1.278       .  A
O100       Cd105   2.476       .  S
C101        O110   1.269       .  A
C101        O106   1.276       .  A
C101        C197   1.483   1_556  S
O102        C108   1.279       .  A
O102       Cd105   2.481       .  S
C103        O111   1.268       .  A
C103        C126   1.471       .  S
C104        O109   1.276       .  A
C104        O107   1.271       .  A
C104        C377   1.488       .  S
Cd105       O112   2.390       .  S
Cd105       O111   2.363       .  S
Cd105       O110   2.402       .  S
Cd105       O106   2.477       .  S
Cd105       O109   2.468       .  S
Cd105       O107   2.427       .  S
C108        O112   1.269       .  A
C108        C146   1.484       .  S
C113        C114   1.402       .  A
C113        C118   1.394       .  A
C113        H123   1.084       .  S
C114        C119   1.486       .  S
C114        C115   1.403       .  A
C115        C116   1.397       .  A
C115        F120   1.357       .  S
C116        C117   1.418       .  A
C116        H121   1.079       .  S
C117        C118   1.419       .  A
C118        F122   1.356       .  S
C119        C124   1.406       .  A
C119        C128   1.410       .  A
C124        C125   1.391   1_565  A
C124        F129   1.358       .  S
C125        C126   1.402       .  A
C125        H130   1.085       .  S
C126        C127   1.403   1_545  A
C127        C128   1.403       .  A
C127        F131   1.357   1_565  S
C128        H132   1.084       .  S
C133        C134   1.407   1_564  A
C133        C138   1.401       .  A
C133        H143   1.085       .  S
C134        C139   1.487       .  S
C134        C135   1.405   1_545  A
C135        C136   1.397       .  A
C135        F140   1.358   1_565  S
C136        C137   1.407       .  A
C136        H141   1.085       .  S
C137        C138   1.406   1_556  A
C138        F142   1.357       .  S
C139        C144   1.404       .  A
C139        C148   1.408       .  A
C144        C145   1.396       .  A
C144        F149   1.358   1_545  S
C145        C146   1.408       .  A
C145        H150   1.085       .  S
C146        C147   1.407       .  A
C147        C148   1.403       .  A
C147        F151   1.357       .  S
C148        H152   1.085       .  S
C153        C154   1.397       .  A
C153        C158   1.395       .  A
C153        H163   1.083       .  S
C154        C159   1.483       .  S
C154        C155   1.404       .  A
C155        C156   1.402       .  A
C155        F160   1.357       .  S
C156        C157   1.416       .  A
C156        H161   1.082       .  S
C157        C158   1.426       .  A
C158        F162   1.356       .  S
C159        C164   1.410       .  A
C159        C168   1.400       .  A
C164        C165   1.404       .  A
C164        F169   1.357       .  S
C165        C166   1.403       .  A
C165        H170   1.084       .  S
C166        C167   1.410       .  A
C167        C168   1.395       .  A
C167        F171   1.358       .  S
C168        H172   1.084       .  S
C173        C174   1.398       .  A
C173        C178   1.393       .  A
C173        H183   1.084       .  S
C174        C179   1.474       .  S
C174        C175   1.406       .  A
C175        C176   1.403       .  A
C175        F180   1.358       .  S
C176        C177   1.406       .  A
C176        H181   1.083       .  S
C177        C178   1.410       .  A
C178        F182   1.357       .  S
C179        C184   1.396       .  A
C179        C188   1.397       .  A
C184        C185   1.397       .  A
C184        F189   1.357       .  S
C185        C186   1.421       .  A
C185        H190   1.082       .  S
C186        C187   1.424       .  A
C187        C188   1.396       .  A
C187        F191   1.354       .  S
C188        H192   1.083       .  S
C193        C194   1.402       .  A
C193        C198   1.396       .  A
C193        H203   1.083       .  S
C194        C199   1.481       .  S
C194        C195   1.406       .  A
C195        C196   1.402       .  A
C195        F200   1.357       .  S
C196        C197   1.406       .  A
C196        H201   1.083       .  S
C197        C198   1.410       .  A
C198        F202   1.358       .  S
C199        C204   1.400       .  A
C199        C208   1.399       .  A
C204        C205   1.394       .  A
C204        F209   1.358       .  S
C205        C206   1.417       .  A
C205        H210   1.074       .  S
C206        C207   1.424       .  A
C207        C208   1.401       .  A
C207        F211   1.357       .  S
C208        H212   1.082       .  S
C213        C214   1.398       .  A
C213        C218   1.398       .  A
C213        H223   1.086       .  S
C214        C219   1.484       .  S
C214        C215   1.400       .  A
C215        C216   1.403       .  A
C215        F220   1.357       .  S
C216        C217   1.420       .  A
C216        H221   1.085       .  S
C217        C218   1.424       .  A
C218        F222   1.355       .  S
C219        C224   1.402       .  A
C219        C228   1.399       .  A
C224        C225   1.404       .  A
C224        F229   1.357       .  S
C225        C226   1.419       .  A
C225        H230   1.083       .  S
C226        C227   1.421       .  A
C227        C228   1.399       .  A
C227        F231   1.355       .  S
C228        H232   1.084       .  S
C233        C234   1.408       .  A
C233        C238   1.401       .  A
C233        H243   1.082       .  S
C234        C239   1.487       .  S
C234        C235   1.407       .  A
C235        C236   1.395       .  A
C235        F240   1.358       .  S
C236        C237   1.404       .  A
C236        H241   1.082       .  S
C237        C238   1.405       .  A
C238        F242   1.357       .  S
C239        C244   1.402       .  A
C239        C248   1.404       .  A
C244        C245   1.396       .  A
C244        F249   1.358       .  S
C245        C246   1.420       .  A
C245        H250   1.078       .  S
C246        C247   1.417       .  A
C247        C248   1.397       .  A
C247        F251   1.358       .  S
C248        H252   1.082       .  S
C253        C254   1.395       .  A
C253        C258   1.390       .  A
C253        H263   1.085       .  S
C254        C259   1.474       .  S
C254        C255   1.402       .  A
C255        C256   1.403       .  A
C255        F260   1.357       .  S
C256        C257   1.417       .  A
C256        H261   1.082       .  S
C257        C258   1.419       .  A
C258        F262   1.355       .  S
C259        C264   1.401       .  A
C259        C268   1.404       .  A
C264        C265   1.398       .  A
C264        F269   1.358       .  S
C265        C266   1.410       .  A
C265        H270   1.084       .  S
C266        C267   1.407       .  A
C267        C268   1.398       .  A
C267        F271   1.357       .  S
C268        H272   1.084       .  S
C273        C274   1.404   1_565  A
C273        C278   1.397       .  A
C273        H283   1.082       .  S
C274        C279   1.488       .  S
C274        C275   1.412   1_545  A
C275        C276   1.399       .  A
C275        F280   1.357   1_565  S
C276        C277   1.400       .  A
C276        H281   1.084       .  S
C277        C278   1.408       .  A
C278        F282   1.358       .  S
C279        C284   1.412       .  A
C279        C288   1.401       .  A
C284        C285   1.403       .  A
C284        F289   1.357       .  S
C285        C286   1.405       .  A
C285        H290   1.082       .  S
C286        C287   1.411       .  A
C287        C288   1.393       .  A
C287        F291   1.358       .  S
C288        H292   1.083   1_545  S
C293        C294   1.405       .  A
C293        C298   1.403       .  A
C293        H303   1.083       .  S
C294        C299   1.491       .  S
C294        C295   1.402       .  A
C295        C296   1.392       .  A
C295        F300   1.358       .  S
C296        C297   1.418       .  A
C296        H301   1.078       .  S
C297        C298   1.418       .  A
C298        F302   1.357       .  S
C299        C304   1.411       .  A
C299        C308   1.408       .  A
C304        C305   1.396       .  A
C304        F309   1.357       .  S
C305        C306   1.400       .  A
C305        H310   1.083       .  S
C306        C307   1.405       .  A
C307        C308   1.402       .  A
C307        F311   1.357       .  S
C308        H312   1.082       .  S
C313        C314   1.404       .  A
C313        C318   1.405       .  A
C313        H323   1.083       .  S
C314        C319   1.502       .  S
C314        C315   1.408       .  A
C315        C316   1.401       .  A
C315        F320   1.357       .  S
C316        C317   1.415       .  A
C316        H321   1.083       .  S
C317        C318   1.424       .  A
C318        F322   1.355       .  S
C319        C324   1.410       .  A
C319        C328   1.404       .  A
C324        C325   1.407       .  A
C324        F329   1.357       .  S
C325        C326   1.414       .  A
C325        H330   1.083       .  S
C326        C327   1.421       .  A
C327        C328   1.401       .  A
C327        F331   1.356       .  S
C328        H332   1.083       .  S
C333        C334   1.401       .  A
C333        C338   1.402       .  A
C333        H343   1.083       .  S
C334        C339   1.477       .  S
C334        C335   1.398       .  A
C335        C336   1.396       .  A
C335        F340   1.358       .  S
C336        C337   1.420       .  A
C336        H341   1.082       .  S
C337        C338   1.420       .  A
C338        F342   1.355       .  S
C339        C344   1.405       .  A
C339        C348   1.401       .  A
C344        C345   1.403       .  A
C344        F349   1.357       .  S
C345        C346   1.406       .  A
C345        H350   1.083       .  S
C346        C347   1.408       .  A
C347        C348   1.396       .  A
C347        F351   1.358   1_565  S
C348        H352   1.083       .  S
C353        C354   1.401       .  A
C353        C358   1.400       .  A
C353        H363   1.084       .  S
C354        C359   1.487       .  S
C354        C355   1.408       .  A
C355        C356   1.405       .  A
C355        F360   1.358       .  S
C356        C357   1.407       .  A
C356        H361   1.084       .  S
C357        C358   1.413       .  A
C358        F362   1.357       .  S
C359        C364   1.404       .  A
C359        C368   1.401       .  A
C364        C365   1.401       .  A
C364        F369   1.357       .  S
C365        C366   1.415       .  A
C365        H370   1.083       .  S
C366        C367   1.420       .  A
C367        C368   1.403       .  A
C367        F371   1.356       .  S
C368        H372   1.084       .  S
C373        C374   1.407       .  A
C373        C378   1.401       .  A
C373        H383   1.083       .  S
C374        C379   1.493       .  S
C374        C375   1.408       .  A
C375        C376   1.400       .  A
C375        F380   1.358       .  S
C376        C377   1.408       .  A
C376        H381   1.083       .  S
C377        C378   1.408       .  A
C378        F382   1.357       .  S
C379        C384   1.404       .  A
C379        C388   1.404       .  A
C384        C385   1.396       .  A
C384        F389   1.357       .  S
C385        C386   1.415       .  A
C385        H390   1.083       .  S
C386        C387   1.422       .  A
C387        C388   1.403       .  A
C387        F391   1.354       .  S
C388        H392   1.083       .  S
C393        C394   1.403       .  A
C393        C398   1.404       .  A
C393        H403   1.083       .  S
C394        C399   1.480       .  S
C394        C395   1.398       .  A
C395        C396   1.396       .  A
C395        F400   1.358       .  S
C396        C397   1.419       .  A
C396        H401   1.083       .  S
C397        C398   1.418       .  A
C398        F402   1.355       .  S
C399        C404   1.404       .  A
C399        C408   1.403       .  A
C404        C405   1.397       .  A
C404        F409   1.358       .  S
C405        C406   1.406       .  A
C405        H410   1.082       .  S
C406        C407   1.409       .  A
C407        C408   1.404       .  A
C407        F411   1.357       .  S
C408        H412   1.082       .  S
C413        C414   1.406       .  A
C413        C418   1.397       .  A
C413        H423   1.082       .  S
C414        C419   1.494       .  S
C414        C415   1.412       .  A
C415        C416   1.402       .  A
C415        F420   1.357       .  S
C416        C417   1.403       .  A
C416        H421   1.084       .  S
C417        C418   1.407       .  A
C418        F422   1.358       .  S
C419        C424   1.408       .  A
C419        C428   1.401       .  A
C424        C425   1.401       .  A
C424        F429   1.357       .  S
C425        C426   1.416       .  A
C425        H430   1.074       .  S
C426        C427   1.420       .  A
C427        C428   1.396       .  A
C427        F431   1.355       .  S
C428        H432   1.078       .  S
C433        C434   1.406       .  A
C433        C438   1.402   1_456  A
C433        H443   1.084   1_556  S
C434        C439   1.481       .  S
C434        C435   1.401   1_455  A
C435        C436   1.395       .  A
C435        F440   1.358       .  S
C436        C437   1.409       .  A
C436        H441   1.084       .  S
C437        C438   1.408   1_556  A
C438        F442   1.357       .  S
C439        C444   1.404       .  A
C439        C448   1.406       .  A
C444        C445   1.397       .  A
C444        F449   1.358   1_556  S
C445        C446   1.406       .  A
C445        H450   1.084       .  S
C446        C447   1.404       .  A
C447        C448   1.401       .  A
C447        F451   1.357       .  S
C448        H452   1.084       .  S
C453        C454   1.406       .  A
C453        C458   1.402       .  A
C453        H463   1.085       .  S
C454        C459   1.496       .  S
C454        C455   1.411       .  A
C455        C456   1.401       .  A
C455        F460   1.358       .  S
C456        C457   1.405       .  A
C456        H461   1.085       .  S
C457        C458   1.409       .  A
C458        F462   1.357       .  S
C459        C464   1.407       .  A
C459        C468   1.402       .  A
C464        C465   1.402       .  A
C464        F469   1.357       .  S
C465        C466   1.416       .  A
C465        H470   1.083       .  S
C466        C467   1.420       .  A
C467        C468   1.398       .  A
C467        F471   1.356       .  S
C468        H472   1.085       .  S
C473        C474   1.404       .  A
C473        C478   1.402       .  A
C473        H483   1.081       .  S
C474        C479   1.484       .  S
C474        C475   1.401       .  A
C475        C476   1.391       .  A
C475        F480   1.358       .  S
C476        C477   1.419       .  A
C476        H481   1.078       .  S
C477        C478   1.418       .  A
C478        F482   1.357       .  S
C479        C484   1.409       .  A
C479        C488   1.403       .  A
C484        C485   1.404       .  A
C484        F489   1.357       .  S
C485        C486   1.405       .  A
C485        H490   1.082       .  S
C486        C487   1.406       .  A
C487        C488   1.391       .  A
C487        F491   1.358       .  S
C488        H492   1.082       .  S
C493        C494   1.402       .  A
C493        C498   1.397       .  A
C493        H503   1.085       .  S
C494        C499   1.481       .  S
C494        C495   1.407       .  A
C495        C496   1.399       .  A
C495        F500   1.358       .  S
C496        C497   1.406       .  A
C496        H501   1.085       .  S
C497        C498   1.409       .  A
C498        F502   1.357       .  S
C499        C504   1.403       .  A
C499        C508   1.399       .  A
C504        C505   1.400       .  A
C504        F509   1.358       .  S
C505        C506   1.416       .  A
C505        H510   1.079       .  S
C506        C507   1.418       .  A
C507        C508   1.395       .  A
C507        F511   1.357       .  S
C508        H512   1.084       .  S
C513        C514   1.405       .  A
C513        C518   1.394       .  A
C513        H523   1.083       .  S
C514        C519   1.486       .  S
C514        C515   1.409       .  A
C515        C516   1.405       .  A
C515        F520   1.357       .  S
C516        C517   1.404       .  A
C516        H521   1.082       .  S
C517        C518   1.401       .  A
C518        F522   1.358       .  S
C519        C524   1.399       .  A
C519        C528   1.405       .  A
C524        C525   1.389       .  A
C524        F529   1.358       .  S
C525        C526   1.419       .  A
C525        H530   1.076       .  S
C526        C527   1.419       .  A
C527        C528   1.407       .  A
C527        F531   1.357       .  S
C528        H532   1.080       .  S
C533        C534   1.401       .  A
C533        C538   1.400       .  A
C533        H543   1.086       .  S
C534        C539   1.496       .  S
C534        C535   1.406       .  A
C535        C536   1.401       .  A
C535        F540   1.358       .  S
C536        C537   1.415       .  A
C536        H541   1.086       .  S
C537        C538   1.426       .  A
C538        F542   1.354       .  S
C539        C544   1.412       .  A
C539        C548   1.404       .  A
C544        C545   1.403       .  A
C544        F549   1.358       .  S
C545        C546   1.405       .  A
C545        H550   1.087       .  S
C546        C547   1.411       .  A
C547        C548   1.400       .  A
C547        F551   1.357       .  S
C548        H552   1.087       .  S
C553        C554   1.403       .  A
C553        C558   1.396       .  A
C553        H563   1.081       .  S
C554        C559   1.485       .  S
C554        C555   1.410       .  A
C555        C556   1.400       .  A
C555        F560   1.357       .  S
C556        C557   1.403       .  A
C556        H561   1.082       .  S
C557        C558   1.410       .  A
C558        F562   1.358       .  S
C559        C564   1.404       .  A
C559        C568   1.399       .  A
C564        C565   1.398       .  A
C564        F569   1.357       .  S
C565        C566   1.415       .  A
C565        H570   1.079       .  S
C566        C567   1.423       .  A
C567        C568   1.396       .  A
C567        F571   1.355       .  S
C568        H572   1.080       .  S
C573        C574   1.405       .  A
C573        C578   1.400       .  A
C573        H583   1.081       .  S
C574        C579   1.510       .  S
C574        C575   1.413       .  A
C575        C576   1.408       .  A
C575        F580   1.357       .  S
C576        C577   1.415       .  A
C576        H581   1.080       .  S
C577        C578   1.420       .  A
C578        F582   1.356       .  S
C579        C584   1.414   1_455  A
C579        C588   1.406   1_455  A
C584        C585   1.405       .  A
C584        F589   1.357   1_655  S
C585        C586   1.414       .  A
C585        H590   1.079       .  S
C586        C587   1.418       .  A
C587        C588   1.402       .  A
C587        F591   1.357       .  S
C588        H592   1.082       .  S
C593        C594   1.396       .  A
C593        C598   1.394       .  A
C593        H603   1.083       .  S
C594        C599   1.479       .  S
C594        C595   1.404       .  A
C595        C596   1.402       .  A
C595        F600   1.357       .  S
C596        C597   1.415       .  A
C596        H601   1.080       .  S
C597        C598   1.421       .  A
C598        F602   1.355       .  S
C599        C604   1.404       .  A
C599        C608   1.404       .  A
C604        C605   1.395       .  A
C604        F609   1.358       .  S
C605        C606   1.405       .  A
C605        H610   1.083       .  S
C606        C607   1.409       .  A
C607        C608   1.404       .  A
C607        F611   1.357       .  S
C608        H612   1.083       .  S
C613        C614   1.403       .  A
C613        C618   1.398       .  A
C613        H623   1.083       .  S
C614        C619   1.488       .  S
C614        C615   1.404       .  A
C615        C616   1.400       .  A
C615        F620   1.357       .  S
C616        C617   1.414       .  A
C616        H621   1.080       .  S
C617        C618   1.417       .  A
C618        F622   1.357       .  S
C619        C624   1.410       .  A
C619        C628   1.402       .  A
C624        C625   1.401       .  A
C624        F629   1.357       .  S
C625        C626   1.405       .  A
C625        H630   1.083       .  S
C626        C627   1.411       .  A
C627        C628   1.397       .  A
C627        F631   1.357       .  S
C628        H632   1.084       .  S
C633        C634   1.404       .  A
C633        C638   1.401       .  A
C633        H643   1.084       .  S
C634        C639   1.477       .  S
C634        C635   1.403       .  A
C635        C636   1.394       .  A
C635        F640   1.358       .  S
C636        C637   1.407       .  A
C636        H641   1.084       .  S
C637        C638   1.408       .  A
C638        F642   1.357       .  S
C639        C644   1.399       .  A
C639        C648   1.397       .  A
C644        C645   1.399       .  A
C644        F649   1.357       .  S
C645        C646   1.420       .  A
C645        H650   1.082       .  S
C646        C647   1.423       .  A
C647        C648   1.392       .  A
C647        F651   1.355       .  S
C648        H652   1.085       .  S
C653        C654   1.408       .  A
C653        C658   1.406   1_455  A
C653        H663   1.083       .  S
C654        C659   1.504       .  S
C654        C655   1.409       .  A
C655        C656   1.400   1_455  A
C655        F660   1.357       .  S
C656        C657   1.413       .  A
C656        H661   1.082       .  S
C657        C658   1.418       .  A
C658        F662   1.357       .  S
C659        C664   1.408       .  A
C659        C668   1.406       .  A
C664        C665   1.406       .  A
C664        F669   1.357       .  S
C665        C666   1.419       .  A
C665        H670   1.082       .  S
C666        C667   1.417       .  A
C667        C668   1.400       .  A
C667        F671   1.357       .  S
C668        H672   1.085       .  S
C673        C674   1.406       .  A
C673        C678   1.401       .  A
C673        H683   1.083       .  S
C674        C679   1.486       .  S
C674        C675   1.405       .  A
C675        C676   1.398       .  A
C675        F680   1.358       .  S
C676        C677   1.407       .  A
C676        H681   1.083       .  S
C677        C678   1.408       .  A
C678        F682   1.357       .  S
C679        C684   1.403       .  A
C679        C688   1.401       .  A
C684        C685   1.400       .  A
C684        F689   1.358       .  S
C685        C686   1.417       .  A
C685        H690   1.078       .  S
C686        C687   1.418       .  A
C687        C688   1.397       .  A
C687        F691   1.357       .  S
C688        H692   1.083       .  S
C693        C694   1.398       .  A
C693        C698   1.392       .  A
C693        H703   1.084       .  S
C694        C699   1.482       .  S
C694        C695   1.405       .  A
C695        C696   1.403       .  A
C695        F700   1.357       .  S
C696        C697   1.414       .  A
C696        H701   1.081       .  S
C697        C698   1.420       .  A
C698        F702   1.357       .  S
C699        C704   1.408       .  A
C699        C708   1.401       .  A
C704        C705   1.400       .  A
C704        F709   1.358       .  S
C705        C706   1.405       .  A
C705        H710   1.084       .  S
C706        C707   1.412       .  A
C707        C708   1.397       .  A
C707        F711   1.358       .  S
C708        H712   1.085       .  S
C713        C714   1.409       .  A
C713        C718   1.400   1_455  A
C713        H723   1.084       .  S
C714        C719   1.487       .  S
C714        C715   1.404   1_455  A
C715        C716   1.396       .  A
C715        F720   1.358       .  S
C716        C717   1.409       .  A
C716        H721   1.085       .  S
C717        C718   1.405       .  A
C718        F722   1.357       .  S
C719        C724   1.405       .  A
C719        C728   1.410       .  A
C724        C725   1.392       .  A
C724        F729   1.358       .  S
C725        C726   1.404       .  A
C725        H730   1.085       .  S
C726        C727   1.403       .  A
C727        C728   1.402       .  A
C727        F731   1.357       .  S
C728        H732   1.084       .  S
C733        C734   1.399       .  A
C733        C738   1.398       .  A
C733        H743   1.084       .  S
C734        C739   1.487       .  S
C734        C735   1.405       .  A
C735        C736   1.395       .  A
C735        F740   1.357       .  S
C736        C737   1.414       .  A
C736        H741   1.083       .  S
C737        C738   1.426       .  A
C738        F742   1.356       .  S
C739        C744   1.410       .  A
C739        C748   1.405       .  A
C744        C745   1.400       .  A
C744        F749   1.357       .  S
C745        C746   1.403       .  A
C745        H750   1.084       .  S
C746        C747   1.407       .  A
C747        C748   1.396       .  A
C747        F751   1.358       .  S
C748        H752   1.084       .  S
