geometry optimzed in LAMMPS
_audit_creation_date              2020-12-01 
_audit_creation_method            'lammps2cif' 
_symmetry_space_group_name_H-M    'P1' 
_symmetry_Int_Tables_number       1 
_symmetry_cell_setting            triclinic 
loop_ 
_symmetry_equiv_pos_as_xyz 
  x,y,z 
_cell_length_a                    44.92295421 
_cell_length_b                    32.579483423580584 
_cell_length_c                    33.12893624249389 
_cell_angle_alpha                 90.77718107324579 
_cell_angle_beta                  89.99568394830048 
_cell_angle_gamma                 90.0682199184594 
loop_ 
_atom_site_label 
_atom_site_type_symbol 
_atom_site_fract_x 
_atom_site_fract_y 
_atom_site_fract_z 
_atom_site_charge 
O1          O  0.17535270  0.27044094  0.02888888    -0.88100
C2          C  0.09341376  0.30356605  0.06807486     0.87900
Mg3        Mg  0.19130620  0.28114220  0.96921475     1.58100
O4          O  0.10354498  0.19815670  0.05051790    -0.87900
O5          O  0.17021789  0.21978821  0.07119081    -0.75200
C6          C  0.08003750  0.21926915  0.85074007     0.92900
O7          O  0.13546850  0.34578340  0.00199306    -0.75000
O8          O  0.10283301  0.24253397  0.84913787    -0.82500
Mg9        Mg  0.15612849  0.32142203  0.06064788     1.58000
C10         C  0.04346121  0.13010139  0.98742163     0.92900
O11         O  0.17808671  0.30146367  0.12034188    -0.80800
H12         H  0.12669240  0.14677319  0.05986979    -0.06100
C13         C  0.06584330  0.26128278  0.95747605     0.87800
O14         O  0.18060405  0.21486393  0.95039177    -0.75300
O15         O  0.11739765  0.28538911  0.07181305    -0.88100
O16         O  0.04506141  0.15407200  0.01804589    -0.80900
C17         C  0.05223804  0.22129205  0.13153612     0.93000
C18         C  0.17169444  0.28141023  0.15202532     0.92800
Mg19       Mg  0.09527677  0.17977307  0.94237209     1.58000
O20         O  0.07333228  0.19930186  0.88234542    -0.80800
O21         O  0.11595803  0.15558241  0.00112415    -0.75000
O22         O  0.07956724  0.23081333  0.13702472    -0.80900
O23         O  0.19539384  0.36320709  0.04871209    -0.82600
O24         O  0.17141567  0.27040726  0.86634290    -0.80900
C25         C  0.11547411  0.16600054  0.03832219     0.87300
O26         O  0.13391933  0.21580129  0.93131218    -0.88000
O27         O  0.07596476  0.23062087  0.97422832    -0.88200
O28         O  0.08099820  0.28136699  0.93205249    -0.75200
Mg29       Mg  0.12432123  0.22786157  0.10125826     1.58000
O30         O  0.04192449  0.21187482  0.09687556    -0.82600
H31         H  0.20746541  0.22907980  0.03781202    -0.06300
O32         O  0.14773489  0.30294134  0.95278178    -0.87900
H33         H  0.12484328  0.35449203  0.94319489    -0.06100
H34         H  0.15912856  0.16544909  0.92644573    -0.06300
C35         C  0.13594953  0.33524726  0.96483184     0.87200
C36         C  0.18540511  0.23975833  0.04570007     0.87800
C37         C  0.15787331  0.19754616  0.93499477     0.87900
H38         H  0.04375513  0.27185547  0.96538012    -0.06300
O39         O  0.07068493  0.28612229  0.05278891    -0.75300
Mg40       Mg  0.12689947  0.27335281  0.90206846     1.58000
H41         H  0.09211028  0.33568210  0.07653764    -0.06300
C42         C  0.20801838  0.37107545  0.01536440     0.92900
O43         O  0.20925578  0.28896889  0.90629399    -0.82500
C44         C  0.19876900  0.27968390  0.87170684     0.92900
O45         O  0.14867252  0.25862113  0.15418561    -0.82500
Mg46       Mg  0.06000667  0.21981464  0.03393540     1.58200
O47         O  0.20639705  0.34684086  0.98494694    -0.80900
O48         O  0.05612711  0.13815576  0.95417514    -0.82600
O49         O  0.42417435  0.77130136  0.02488794    -0.88100
C50         C  0.34254108  0.80451670  0.06543550     0.87900
Mg51       Mg  0.43979849  0.78208387  0.96496214     1.58100
O52         O  0.35242485  0.69908761  0.04787454    -0.87900
O53         O  0.41930552  0.72064989  0.06726155    -0.75200
C54         C  0.32748745  0.71987790  0.84868048     0.92900
O55         O  0.38393325  0.84637866  0.99858821    -0.75000
O56         O  0.35037238  0.74288444  0.84639743    -0.82500
Mg57       Mg  0.40509942  0.82217855  0.05698862     1.58000
C58         C  0.29179877  0.63086335  0.98609285     0.92900
O59         O  0.42760931  0.80252894  0.11647756    -0.80800
H60         H  0.37540976  0.64758149  0.05726800    -0.06100
C61         C  0.31419999  0.76210973  0.95519706     0.87800
O62         O  0.42900276  0.71574835  0.94633697    -0.75300
O63         O  0.36651332  0.78623459  0.06876985    -0.88100
O64         O  0.29354358  0.65515726  0.01645630    -0.80900
C65         C  0.30197144  0.72262361  0.12954703     0.93000
C66         C  0.42135232  0.78255717  0.14825775     0.92800
Mg67       Mg  0.34344866  0.68042096  0.94010702     1.58000
O68         O  0.32116066  0.69998408  0.88048714    -0.80800
O69         O  0.36447121  0.65624247  0.99857404    -0.75000
O70         O  0.32935714  0.73196581  0.13469202    -0.80900
O71         O  0.44414308  0.86377925  0.04455956    -0.82600
O72         O  0.41931238  0.77091104  0.86245772    -0.80900
C73         C  0.36416697  0.66679065  0.03573040     0.87300
O74         O  0.38207701  0.71649611  0.92838820    -0.88000
O75         O  0.32434496  0.73144967  0.97194849    -0.88200
O76         O  0.32923269  0.78201693  0.92949140    -0.75200
Mg77       Mg  0.37369997  0.72879468  0.09815214     1.58000
O78         O  0.29137470  0.71322222  0.09504573    -0.82600
H79         H  0.45627820  0.72980593  0.03328094    -0.06300
O80         O  0.39609420  0.80379280  0.94908662    -0.87900
H81         H  0.37284299  0.85513536  0.93995571    -0.06100
H82         H  0.40728866  0.66617950  0.92309740    -0.06300
C83         C  0.38421621  0.83594474  0.96139253     0.87200
C84         C  0.43430601  0.74057255  0.04153079     0.87800
C85         C  0.40609187  0.69829782  0.93158906     0.87900
H86         H  0.29219980  0.77282818  0.96332746    -0.06300
O87         O  0.31967048  0.78719835  0.05043087    -0.75300
Mg88       Mg  0.37491873  0.77390037  0.89884387     1.58000
H89         H  0.34137595  0.83663091  0.07395474    -0.06300
C90         C  0.45663208  0.87182107  0.01118817     0.92900
O91         O  0.45747110  0.78992871  0.90165073    -0.82500
C92         C  0.44670558  0.78047077  0.86726516     0.92900
O93         O  0.39844125  0.75960015  0.15057230    -0.82500
Mg94       Mg  0.30880374  0.72089139  0.03187510     1.58200
O95         O  0.45487622  0.84783832  0.98059103    -0.80900
O96         O  0.30430319  0.63864581  0.95264031    -0.82600
O97         O  0.42541027  0.22965804  0.47505618    -0.88100
C98         C  0.34325221  0.19719437  0.43501107     0.87900
Mg99       Mg  0.44110152  0.21852695  0.53496010     1.58100
O100        O  0.35366644  0.30253170  0.45291290    -0.87900
O101        O  0.42037693  0.28054168  0.43295230    -0.75200
C102        C  0.32894669  0.27987373  0.65179476     0.92900
O103        O  0.38495708  0.15441453  0.50129827    -0.75000
O104        O  0.35171288  0.25671547  0.65390909    -0.82500
Mg105      Mg  0.40588142  0.17895613  0.44291573     1.58000
C106        C  0.29365861  0.37058661  0.51592250     0.92900
O107        O  0.42807808  0.19882370  0.38320883    -0.80800
H108        H  0.37699167  0.35389903  0.44385390    -0.06100
C109        C  0.31553323  0.23884798  0.54506799     0.87800
O110        O  0.43053565  0.28476335  0.55406029    -0.75300
O111        O  0.36733506  0.21528815  0.43168551    -0.88100
O112        O  0.29516436  0.34684464  0.48513345    -0.80900
C113        C  0.30265093  0.27967032  0.37147172     0.93000
C114        C  0.42176121  0.21897880  0.35156026     0.92800
Mg115      Mg  0.34517403  0.32022853  0.56091414     1.58000
O116        O  0.32282248  0.30022476  0.62023958    -0.80800
O117        O  0.36617060  0.34479972  0.50253339    -0.75000
O118        O  0.32996587  0.27003162  0.36619315    -0.80900
O119        O  0.44482008  0.13682801  0.45500300    -0.82600
O120        O  0.42047269  0.22861520  0.63769835    -0.80900
C121        C  0.36567992  0.33459585  0.46528407     0.87300
O122        O  0.38364503  0.28391687  0.57219774    -0.88000
O123        O  0.32571730  0.26972113  0.52868107    -0.88200
O124        O  0.33055528  0.21858065  0.57045837    -0.75200
Mg125      Mg  0.37457740  0.27280600  0.40236735     1.58000
O126        O  0.29223875  0.28923096  0.40603427    -0.82600
H127        H  0.45751060  0.27123667  0.46652735    -0.06300
O128        O  0.39735288  0.19685054  0.55078667    -0.87900
H129        H  0.37424903  0.14533988  0.56000933    -0.06100
H130        H  0.40899397  0.33415097  0.57782761    -0.06300
C131        C  0.38546551  0.16467234  0.53851874     0.87200
C132        C  0.43548492  0.26049491  0.45845467     0.87800
C133        C  0.40770358  0.30210488  0.56907383     0.87900
H134        H  0.29350621  0.22823334  0.53684019    -0.06300
O135        O  0.32046840  0.21469852  0.44999342    -0.75300
Mg136      Mg  0.37621394  0.22625526  0.60121236     1.58000
H137        H  0.34188292  0.16511700  0.42640713    -0.06300
C138        C  0.45745464  0.12872559  0.48828306     0.92900
O139        O  0.45864139  0.21014137  0.59831072    -0.82500
C140        C  0.44782698  0.21902996  0.63281339     0.92900
O141        O  0.39893596  0.24206049  0.34955113    -0.82500
Mg142      Mg  0.30997318  0.28099092  0.46903442     1.58200
O143        O  0.45600203  0.15281091  0.51884092    -0.80900
O144        O  0.30623483  0.36212184  0.54913959    -0.82600
O145        O  0.17407277  0.72818821  0.47114943    -0.88100
C146        C  0.09187643  0.69616846  0.43162015     0.87900
Mg147      Mg  0.19010269  0.71662929  0.53056187     1.58100
O148        O  0.10239579  0.80134109  0.45007852    -0.87900
O149        O  0.16903731  0.77955225  0.42966376    -0.75200
C150        C  0.07937673  0.77893728  0.64964189     0.92900
O151        O  0.13370182  0.65297719  0.49727811    -0.75000
O152        O  0.10209387  0.75558498  0.65098446    -0.82500
Mg153      Mg  0.15446277  0.67785338  0.43884749     1.58000
C154        C  0.04259751  0.86944149  0.51355525     0.92900
O155        O  0.17666730  0.69838957  0.37962310    -0.80800
H156        H  0.12542887  0.85288830  0.44073384    -0.06100
C157        C  0.06458510  0.73764502  0.54268191     0.87800
O158        O  0.17979939  0.78289351  0.54993134    -0.75300
O159        O  0.11594178  0.71427180  0.42810607    -0.88100
O160        O  0.04391452  0.84543463  0.48291748    -0.80900
C161        C  0.05137896  0.77939832  0.36860214     0.93000
C162        C  0.17053581  0.71896191  0.34821545     0.92800
Mg163      Mg  0.09445564  0.81904420  0.55812396     1.58000
O164        O  0.07267089  0.79915850  0.61819827    -0.80800
O165        O  0.11500854  0.84370022  0.49952405    -0.75000
O166        O  0.07866910  0.76976848  0.36315947    -0.80900
O167        O  0.19343729  0.63580050  0.45005083    -0.82600
O168        O  0.17055042  0.72741518  0.63329404    -0.80900
C169        C  0.11433339  0.83350307  0.46229205     0.87300
O170        O  0.13301095  0.78248004  0.56861741    -0.88000
O171        O  0.07465522  0.76848728  0.52609826    -0.88200
O172        O  0.07981883  0.71735114  0.56784167    -0.75200
Mg173      Mg  0.12322734  0.77205844  0.39924970     1.58000
O174        O  0.04096906  0.78836072  0.40333160    -0.82600
H175        H  0.20624803  0.76971394  0.46290742    -0.06300
O176        O  0.14639968  0.69517693  0.54686877    -0.87900
H177        H  0.12314305  0.64376638  0.55603211    -0.06100
H178        H  0.15860218  0.83252940  0.57377964    -0.06300
C179        C  0.13434333  0.66312077  0.53454359     0.87200
C180        C  0.18417763  0.75914641  0.45482291     0.87800
C181        C  0.15711863  0.80047455  0.56511886     0.87900
H182        H  0.04246287  0.72709961  0.53485911    -0.06300
O183        O  0.06920111  0.71356943  0.44701865    -0.75300
Mg184      Mg  0.12584550  0.72484880  0.59774190     1.58000
H185        H  0.09045387  0.66413405  0.42287142    -0.06300
C186        C  0.20613756  0.62720886  0.48314803     0.92900
O187        O  0.20818976  0.70807669  0.59339166    -0.82500
C188        C  0.19782729  0.71772065  0.62796070     0.92900
O189        O  0.14761383  0.74185765  0.34616436    -0.82500
Mg190      Mg  0.05875585  0.77976629  0.46639546     1.58200
O191        O  0.20474330  0.65083459  0.51403156    -0.80900
O192        O  0.05546790  0.86131036  0.54666436    -0.82600
C193        C  0.48541908  0.02882000  0.47927165     0.30000
C194        C  0.48932955  0.99005544  0.46111763    -0.36400
C195        C  0.50404633  0.96081684  0.48447527     0.15900
C196        C  0.01424767  0.96913696  0.52303155     0.21800
C197        C  0.01030373  0.00789818  0.54121166    -0.34500
C198        C  0.99558787  0.03714769  0.51784272     0.15900
O199        O  0.47161505  0.06035299  0.46328731    -0.26500
C200        C  0.47296796  0.08929482  0.49195407     0.05600
C201        C  0.48768230  0.07661326  0.52657254    -0.31400
O202        O  0.02820979  0.93765573  0.53889103    -0.23200
C203        C  0.02690778  0.90877476  0.51014809    -0.03200
C204        C  0.01205708  0.92143095  0.47563746    -0.17700
H205        H  0.48144666  0.98317987  0.43089674     0.20300
H206        H  0.01823408  0.01479680  0.57140294     0.18700
H207        H  0.99118542  0.09356805  0.55449019     0.18700
H208        H  0.50858883  0.90454047  0.44766918     0.14500
C209        C  0.24355185  0.53836559  0.51257995     0.30000
C210        C  0.25796983  0.51207544  0.53941482    -0.36400
C211        C  0.26396583  0.47241163  0.52468456     0.15900
C212        C  0.25643942  0.45950373  0.48615133     0.21800
C213        C  0.24202689  0.48580599  0.45930167    -0.34500
C214        C  0.23601089  0.52547470  0.47404523     0.15900
O215        O  0.23494078  0.57629213  0.52047866    -0.26500
C216        C  0.22184008  0.58791771  0.48649636     0.05600
C217        C  0.22193017  0.55758738  0.45651558    -0.31400
O218        O  0.26499140  0.42152448  0.47832647    -0.23200
C219        C  0.27801964  0.40990761  0.51237193    -0.03200
C220        C  0.27795153  0.44028753  0.54229359    -0.17700
H221        H  0.26399641  0.52181698  0.56969312     0.20300
H222        H  0.23597409  0.47605102  0.42903740     0.18700
H223        H  0.21208189  0.55857642  0.42672368     0.18700
H224        H  0.28774090  0.43930948  0.57212342     0.14500
C225        C  0.50651785  0.77739832  0.79913242     0.30000
C226        C  0.03631240  0.77252893  0.78711556    -0.36400
C227        C  0.04212551  0.77732039  0.74582201     0.15900
C228        C  0.02021033  0.78700047  0.71836620     0.21800
C229        C  0.49034417  0.79129604  0.73029997    -0.34500
C230        C  0.48443463  0.78574038  0.77148312     0.15900
O231        O  0.49616540  0.77452445  0.83624670    -0.26500
C232        C  0.46698308  0.78040853  0.83231331     0.05600
C233        C  0.45836107  0.78728876  0.79262859    -0.31400
O234        O  0.03059921  0.79007454  0.68127569    -0.23200
C235        C  0.05947540  0.78171019  0.68487679    -0.03200
C236        C  0.06790199  0.77337830  0.72434873    -0.17700
H237        H  0.05370578  0.76525354  0.80843829     0.20300
H238        H  0.47290048  0.79815481  0.70889986     0.18700
H239        H  0.43623845  0.79338828  0.78123624     0.18700
H240        H  0.08974642  0.76522642  0.73545290     0.14500
C241        C  0.45819259  0.78022045  0.24160424     0.30000
C242        C  0.46113604  0.77437298  0.28328404    -0.36400
C243        C  0.99005352  0.77798777  0.29892898     0.15900
C244        C  0.01457384  0.78609160  0.27520555     0.21800
C245        C  0.01155676  0.79261681  0.23355999    -0.34500
C246        C  0.48251375  0.78970506  0.21800477     0.15900
O247        O  0.43336119  0.77695679  0.22048572    -0.26500
C248        C  0.44176113  0.78521019  0.18294553     0.05600
C249        C  0.47205858  0.79361008  0.17963784    -0.31400
O250        O  0.03961973  0.78707363  0.29617738    -0.23200
C251        C  0.03088221  0.78009857  0.33389506    -0.03200
C252        C  0.00029218  0.77440919  0.33734759    -0.17700
H253        H  0.44221493  0.76726061  0.30218176     0.20300
H254        H  0.03051343  0.79933193  0.21459502     0.18700
H255        H  0.48467595  0.80007486  0.15262154     0.18700
H256        H  0.98751966  0.76818790  0.36429275     0.14500
C257        C  0.29076360  0.72161910  0.75522699     0.30000
C258        C  0.28779359  0.72719077  0.71350285    -0.36400
C259        C  0.25900689  0.72223149  0.69773046     0.15900
C260        C  0.23462618  0.71323230  0.72140451     0.21800
C261        C  0.23767526  0.70706914  0.76307851    -0.34500
C262        C  0.26659423  0.71123157  0.77873572     0.15900
O263        O  0.31550030  0.72566154  0.77643742    -0.26500
C264        C  0.30717736  0.71700524  0.81392236     0.05600
C265        C  0.27704011  0.70759605  0.81710845    -0.31400
O266        O  0.20967284  0.71095769  0.70035013    -0.23200
C267        C  0.21833236  0.71793964  0.66262084    -0.03200
C268        C  0.24877924  0.72497028  0.65921948    -0.17700
H269        H  0.30660931  0.73492183  0.69464641     0.20300
H270        H  0.21883858  0.69957170  0.78197053     0.18700
H271        H  0.26451312  0.70047925  0.84403804     0.18700
H272        H  0.26144403  0.73155451  0.63226608     0.14500
C273        C  0.20824410  0.72359749  0.25564716     0.30000
C274        C  0.21158702  0.73019993  0.21415956    -0.36400
C275        C  0.24056398  0.72621863  0.19885554     0.15900
C276        C  0.26480742  0.71714877  0.22272533     0.21800
C277        C  0.26140018  0.71001300  0.26420293    -0.34500
C278        C  0.23227128  0.71321142  0.27938936     0.15900
O279        O  0.18322971  0.72654907  0.27639352    -0.26500
C280        C  0.19121515  0.71717564  0.31381212     0.05600
C281        C  0.22142295  0.70840433  0.31742644    -0.31400
O282        O  0.28992822  0.71544158  0.20195149    -0.23200
C283        C  0.28148017  0.72292323  0.16422793    -0.03200
C284        C  0.25104266  0.72971419  0.16057842    -0.17700
H285        H  0.19288490  0.73786752  0.19510712     0.20300
H286        H  0.28010061  0.70238318  0.28326163     0.18700
H287        H  0.23372039  0.70096458  0.34444539     0.18700
H288        H  0.23849381  0.73631335  0.13353927     0.14500
C289        C  0.50745905  0.22046168  0.70115103     0.30000
C290        C  0.03724932  0.22493609  0.71324918    -0.36400
C291        C  0.04292231  0.22021441  0.75455452     0.15900
C292        C  0.02088355  0.21091906  0.78199236     0.21800
C293        C  0.49100203  0.20691265  0.76995819    -0.34500
C294        C  0.48523487  0.21244328  0.72872158     0.15900
O295        O  0.49723219  0.22369003  0.66403005    -0.26500
C296        C  0.46799071  0.21835440  0.66783865     0.05600
C297        C  0.45919220  0.21144561  0.70746998    -0.31400
O298        O  0.03118496  0.20809533  0.81915682    -0.23200
C299        C  0.06011882  0.21623579  0.81555722    -0.03200
C300        C  0.06866314  0.22414014  0.77605811    -0.17700
H301        H  0.05474215  0.23202697  0.69197925     0.20300
H302        H  0.47344858  0.20042989  0.79132332     0.18700
H303        H  0.43696567  0.20582395  0.71877229     0.18700
H304        H  0.09056504  0.23209883  0.76495785     0.14500
C305        C  0.01502787  0.21532169  0.22466806     0.30000
C306        C  0.01182756  0.20839667  0.26619857    -0.36400
C307        C  0.48280815  0.21173958  0.28168325     0.15900
C308        C  0.45865121  0.22205081  0.25816393     0.21800
C309        C  0.46176784  0.22835659  0.21654312    -0.34500
C310        C  0.99068517  0.22425014  0.20093270     0.15900
O311        O  0.04010228  0.21378324  0.20380561    -0.26500
C312        C  0.03159530  0.22121352  0.16610838     0.05600
C313        C  0.00109739  0.22777731  0.16255763    -0.31400
O314        O  0.43382047  0.22546478  0.27930371    -0.23200
C315        C  0.44208530  0.21646578  0.31674119    -0.03200
C316        C  0.47226718  0.20744653  0.31994309    -0.17700
H317        H  0.03064478  0.20096507  0.28513302     0.20300
H318        H  0.44297729  0.23605149  0.19765911     0.18700
H319        H  0.98849746  0.23441525  0.13557422     0.18700
H320        H  0.48478231  0.20030414  0.34686263     0.14500
C321        C  0.29183907  0.27663007  0.74482952     0.30000
C322        C  0.28868006  0.27013923  0.78636381    -0.36400
C323        C  0.25990415  0.27517339  0.80205741     0.15900
C324        C  0.23568686  0.28510660  0.77847962     0.21800
C325        C  0.23892508  0.29217373  0.73698369    -0.34500
C326        C  0.26785679  0.28791714  0.72141386     0.15900
O327        O  0.31661461  0.27271491  0.72372610    -0.26500
C328        C  0.30852520  0.28235256  0.68641655     0.05600
C329        C  0.27848907  0.29227379  0.68321722    -0.31400
O330        O  0.21071920  0.28740793  0.79948453    -0.23200
C331        C  0.21923661  0.27946870  0.83706704    -0.03200
C332        C  0.24957690  0.27180475  0.84043653    -0.17700
H333        H  0.30735771  0.26171098  0.80514530     0.20300
H334        H  0.22023071  0.30042604  0.71817348     0.18700
H335        H  0.26614057  0.30017630  0.65637451     0.18700
H336        H  0.26211821  0.26452360  0.86729708     0.14500
C337        C  0.26545474  0.28492496  0.27826422     0.30000
C338        C  0.26218253  0.29151583  0.23668059    -0.36400
C339        C  0.23309418  0.28822419  0.22137368     0.15900
C340        C  0.20894852  0.27826837  0.24510824     0.21800
C341        C  0.21214866  0.27225982  0.28674072    -0.34500
C342        C  0.24111755  0.27631795  0.30216085     0.15900
O343        O  0.29056873  0.28657658  0.29905752    -0.26500
C344        C  0.28206272  0.27954313  0.33684898     0.05600
C345        C  0.25155606  0.27310719  0.34051943    -0.31400
O346        O  0.18401104  0.27499018  0.22418427    -0.23200
C347        C  0.19218980  0.28371637  0.18665366    -0.03200
C348        C  0.22242932  0.29240272  0.18316995    -0.17700
H349        H  0.28097814  0.29872402  0.21759850     0.20300
H350        H  0.19336959  0.26487699  0.30578889     0.18700
H351        H  0.23895725  0.26678245  0.36758841     0.18700
H352        H  0.23487512  0.29934362  0.15613110     0.14500
C353        C  0.48603403  0.97080684  0.02114966     0.30000
C354        C  0.49102367  0.00893205  0.04009946    -0.36400
C355        C  0.50521867  0.03856290  0.01662040     0.15900
C356        C  0.01396139  0.03117260  0.97723863     0.21800
C357        C  0.00895549  0.99304716  0.95827526    -0.34500
C358        C  0.99475240  0.96341148  0.98175813     0.15900
O359        O  0.47239225  0.93911143  0.03709754    -0.26500
C360        C  0.47241603  0.91102129  0.00758482     0.05600
C361        C  0.48609269  0.92438104  0.97245064    -0.31400
O362        O  0.02766190  0.06285720  0.96134318    -0.23200
C363        C  0.02762963  0.09092361  0.99088480    -0.03200
C364        C  0.01389370  0.07756475  0.02596936    -0.17700
H365        H  0.48427016  0.01507164  0.07096350     0.20300
H366        H  0.01572375  0.98690119  0.92742165     0.18700
H367        H  0.98841449  0.90818177  0.94388739     0.18700
H368        H  0.51156639  0.09373474  0.05454823     0.14500
C369        C  0.23630787  0.47096699  0.02347841     0.30000
C370        C  0.24042179  0.50985543  0.04133089    -0.36400
C371        C  0.25429879  0.53926013  0.01717990     0.15900
C372        C  0.26354673  0.53095965  0.97818267     0.21800
C373        C  0.25943952  0.49207735  0.96033816    -0.34500
C374        C  0.24556641  0.46267999  0.98448376     0.15900
O375        O  0.22292747  0.43935339  0.04005628    -0.26500
C376        C  0.22366662  0.41041416  0.01133989     0.05600
C377        C  0.23758348  0.42316050  0.97613558    -0.31400
O378        O  0.27689811  0.56256518  0.96156774    -0.23200
C379        C  0.27616645  0.59152887  0.99025343    -0.03200
C380        C  0.26227501  0.57880352  0.02549088    -0.17700
H381        H  0.23324339  0.51672511  0.07186958     0.20300
H382        H  0.26660919  0.48521113  0.92979261     0.18700
H383        H  0.24035807  0.40628381  0.94802026     0.18700
H384        H  0.25950033  0.59571160  0.05358710     0.14500
O385        O  0.67535264  0.27044092  0.02888887    -0.88100
C386        C  0.59341380  0.30356606  0.06807486     0.87900
Mg387      Mg  0.69130622  0.28114219  0.96921476     1.58100
O388        O  0.60354501  0.19815669  0.05051790    -0.87900
O389        O  0.67021790  0.21978818  0.07119084    -0.75200
C390        C  0.58003741  0.21926917  0.85074008     0.92900
O391        O  0.63546854  0.34578347  0.00199308    -0.75000
O392        O  0.60283296  0.24253389  0.84913789    -0.82500
Mg393      Mg  0.65612847  0.32142205  0.06064787     1.58000
C394        C  0.54346122  0.13010139  0.98742162     0.92900
O395        O  0.67808671  0.30146375  0.12034192    -0.80800
H396        H  0.62669254  0.14677326  0.05986971    -0.06100
C397        C  0.56584334  0.26128280  0.95747606     0.87800
O398        O  0.68060403  0.21486393  0.95039177    -0.75300
O399        O  0.61739768  0.28538911  0.07181305    -0.88100
O400        O  0.54506143  0.15407199  0.01804590    -0.80900
C401        C  0.55223804  0.22129205  0.13153609     0.93000
C402        C  0.67169446  0.28141024  0.15202533     0.92800
Mg403      Mg  0.59527678  0.17977306  0.94237207     1.58000
O404        O  0.57333221  0.19930185  0.88234544    -0.80800
O405        O  0.61595801  0.15558239  0.00112412    -0.75000
O406        O  0.57956728  0.23081334  0.13702470    -0.80900
O407        O  0.69539386  0.36320711  0.04871207    -0.82600
O408        O  0.67141566  0.27040725  0.86634291    -0.80900
C409        C  0.61547417  0.16600056  0.03832216     0.87300
O410        O  0.63391931  0.21580123  0.93131215    -0.88000
O411        O  0.57596480  0.23062089  0.97422834    -0.88200
O412        O  0.58099823  0.28136698  0.93205249    -0.75200
Mg413      Mg  0.62432121  0.22786156  0.10125826     1.58000
O414        O  0.54192447  0.21187478  0.09687556    -0.82600
H415        H  0.70746623  0.22907949  0.03781173    -0.06300
O416        O  0.64773491  0.30294136  0.95278179    -0.87900
H417        H  0.62484354  0.35449188  0.94319520    -0.06100
H418        H  0.65912859  0.16544910  0.92644568    -0.06300
C419        C  0.63594949  0.33524735  0.96483180     0.87200
C420        C  0.68540486  0.23975842  0.04570012     0.87800
C421        C  0.65787331  0.19754612  0.93499475     0.87900
H422        H  0.54375516  0.27185552  0.96538013    -0.06300
O423        O  0.57068498  0.28612229  0.05278891    -0.75300
Mg424      Mg  0.62689944  0.27335279  0.90206846     1.58000
H425        H  0.59211033  0.33568212  0.07653764    -0.06300
C426        C  0.70801844  0.37107542  0.01536441     0.92900
O427        O  0.70925576  0.28896889  0.90629401    -0.82500
C428        C  0.69876899  0.27968388  0.87170684     0.92900
O429        O  0.64867252  0.25862111  0.15418564    -0.82500
Mg430      Mg  0.56000670  0.21981464  0.03393540     1.58200
O431        O  0.70639697  0.34684090  0.98494692    -0.80900
O432        O  0.55612701  0.13815588  0.95417506    -0.82600
O433        O  0.92417410  0.77130155  0.02488798    -0.88100
C434        C  0.84254101  0.80451675  0.06543549     0.87900
Mg435      Mg  0.93979846  0.78208388  0.96496215     1.58100
O436        O  0.85242485  0.69908744  0.04787464    -0.87900
O437        O  0.91930519  0.72064994  0.06726164    -0.75200
C438        C  0.82748739  0.71987790  0.84868050     0.92900
O439        O  0.88393320  0.84637870  0.99858823    -0.75000
O440        O  0.85037235  0.74288434  0.84639741    -0.82500
Mg441      Mg  0.90509944  0.82217857  0.05698863     1.58000
C442        C  0.79179880  0.63086333  0.98609284     0.92900
O443        O  0.92760928  0.80252892  0.11647757    -0.80800
H444        H  0.87541080  0.64758046  0.05726939    -0.06100
C445        C  0.81420029  0.76210960  0.95519687     0.87800
O446        O  0.92900281  0.71574835  0.94633697    -0.75300
O447        O  0.86651331  0.78623456  0.06876985    -0.88100
O448        O  0.79354347  0.65515737  0.01645623    -0.80900
C449        C  0.80197143  0.72262358  0.12954705     0.93000
C450        C  0.92135227  0.78255719  0.14825773     0.92800
Mg451      Mg  0.84344863  0.68042101  0.94010705     1.58000
O452        O  0.82116065  0.69998410  0.88048715    -0.80800
O453        O  0.86447129  0.65624248  0.99857418    -0.75000
O454        O  0.82935714  0.73196584  0.13469204    -0.80900
O455        O  0.94414301  0.86377928  0.04455958    -0.82600
O456        O  0.91931234  0.77091104  0.86245778    -0.80900
C457        C  0.86416684  0.66679084  0.03573024     0.87300
O458        O  0.88207704  0.71649612  0.92838822    -0.88000
O459        O  0.82434461  0.73144984  0.97194846    -0.88200
O460        O  0.82923247  0.78201698  0.92949151    -0.75200
Mg461      Mg  0.87369997  0.72879466  0.09815215     1.58000
O462        O  0.79137467  0.71322222  0.09504578    -0.82600
H463        H  0.95627493  0.72980729  0.03328205    -0.06300
O464        O  0.89609425  0.80379280  0.94908666    -0.87900
H465        H  0.87284335  0.85513517  0.93995596    -0.06100
H466        H  0.90728871  0.66617951  0.92309739    -0.06300
C467        C  0.88421619  0.83594482  0.96139249     0.87200
C468        C  0.93430641  0.74057231  0.04153065     0.87800
C469        C  0.90609192  0.69829783  0.93158906     0.87900
H470        H  0.79219700  0.77282955  0.96332826    -0.06300
O471        O  0.81967037  0.78719838  0.05043084    -0.75300
Mg472      Mg  0.87491869  0.77390033  0.89884390     1.58000
H473        H  0.84137595  0.83663055  0.07395455    -0.06300
C474        C  0.95663196  0.87182112  0.01118817     0.92900
O475        O  0.95747109  0.78992872  0.90165073    -0.82500
C476        C  0.94670553  0.78047078  0.86726516     0.92900
O477        O  0.89844119  0.75960010  0.15057223    -0.82500
Mg478      Mg  0.80880367  0.72089141  0.03187510     1.58200
O479        O  0.95487621  0.84783833  0.98059104    -0.80900
O480        O  0.80430323  0.63864581  0.95264033    -0.82600
O481        O  0.92541024  0.22965802  0.47505624    -0.88100
C482        C  0.84325218  0.19719430  0.43501101     0.87900
Mg483      Mg  0.94110151  0.21852695  0.53496012     1.58100
O484        O  0.85366645  0.30253166  0.45291292    -0.87900
O485        O  0.92037701  0.28054165  0.43295232    -0.75200
C486        C  0.82894672  0.27987374  0.65179478     0.92900
O487        O  0.88495706  0.15441458  0.50129827    -0.75000
O488        O  0.85171291  0.25671547  0.65390909    -0.82500
Mg489      Mg  0.90588134  0.17895613  0.44291575     1.58000
C490        C  0.79365861  0.37058664  0.51592252     0.92900
O491        O  0.92807810  0.19882366  0.38320881    -0.80800
H492        H  0.87699130  0.35389896  0.44385420    -0.06100
C493        C  0.81553311  0.23884784  0.54506798     0.87800
O494        O  0.93053566  0.28476334  0.55406032    -0.75300
O495        O  0.86733506  0.21528827  0.43168560    -0.88100
O496        O  0.79516441  0.34684467  0.48513342    -0.80900
C497        C  0.80265098  0.27967033  0.37147169     0.93000
C498        C  0.92176119  0.21897881  0.35156024     0.92800
Mg499      Mg  0.84517406  0.32022853  0.56091415     1.58000
O500        O  0.82282248  0.30022477  0.62023961    -0.80800
O501        O  0.86617048  0.34479979  0.50253341    -0.75000
O502        O  0.82996592  0.27003163  0.36619314    -0.80900
O503        O  0.94482005  0.13682800  0.45500301    -0.82600
O504        O  0.92047268  0.22861517  0.63769831    -0.80900
C505        C  0.86567990  0.33459595  0.46528403     0.87300
O506        O  0.88364503  0.28391688  0.57219769    -0.88000
O507        O  0.82571723  0.26972110  0.52868111    -0.88200
O508        O  0.83055530  0.21858063  0.57045839    -0.75200
Mg509      Mg  0.87457742  0.27280603  0.40236735     1.58000
O510        O  0.79223881  0.28923098  0.40603425    -0.82600
H511        H  0.95751110  0.27123667  0.46652752    -0.06300
O512        O  0.89735286  0.19685053  0.55078672    -0.87900
H513        H  0.87424856  0.14533963  0.56000968    -0.06100
H514        H  0.90899398  0.33415094  0.57782765    -0.06300
C515        C  0.88546555  0.16467245  0.53851866     0.87200
C516        C  0.93548484  0.26049478  0.45845468     0.87800
C517        C  0.90770358  0.30210488  0.56907383     0.87900
H518        H  0.79350664  0.22823329  0.53684027    -0.06300
O519        O  0.82046836  0.21469839  0.44999339    -0.75300
Mg520      Mg  0.87621402  0.22625527  0.60121236     1.58000
H521        H  0.84188316  0.16511734  0.42640720    -0.06300
C522        C  0.95745462  0.12872559  0.48828305     0.92900
O523        O  0.95864141  0.21014138  0.59831072    -0.82500
C524        C  0.94782698  0.21902995  0.63281337     0.92900
O525        O  0.89893597  0.24206058  0.34955112    -0.82500
Mg526      Mg  0.80997315  0.28099090  0.46903440     1.58200
O527        O  0.95600208  0.15281098  0.51884087    -0.80900
O528        O  0.80623478  0.36212188  0.54913960    -0.82600
O529        O  0.67407255  0.72818803  0.47114940    -0.88100
C530        C  0.59187653  0.69616844  0.43162011     0.87900
Mg531      Mg  0.69010266  0.71662927  0.53056188     1.58100
O532        O  0.60239574  0.80134109  0.45007852    -0.87900
O533        O  0.66903700  0.77955219  0.42966364    -0.75200
C534        C  0.57937670  0.77893727  0.64964187     0.92900
O535        O  0.63370172  0.65297719  0.49727824    -0.75000
O536        O  0.60209386  0.75558502  0.65098447    -0.82500
Mg537      Mg  0.65446272  0.67785336  0.43884749     1.58000
C538        C  0.54259752  0.86944152  0.51355525     0.92900
O539        O  0.67666735  0.69838957  0.37962314    -0.80800
H540        H  0.62542850  0.85288817  0.44073416    -0.06100
C541        C  0.56458555  0.73764524  0.54268207     0.87800
O542        O  0.67979941  0.78289356  0.54993135    -0.75300
O543        O  0.61594184  0.71427194  0.42810606    -0.88100
O544        O  0.54391456  0.84543465  0.48291748    -0.80900
C545        C  0.55137899  0.77939831  0.36860211     0.93000
C546        C  0.67053583  0.71896193  0.34821547     0.92800
Mg547      Mg  0.59445566  0.81904417  0.55812395     1.58000
O548        O  0.57267086  0.79915849  0.61819827    -0.80800
O549        O  0.61500843  0.84370028  0.49952407    -0.75000
O550        O  0.57866909  0.76976847  0.36315949    -0.80900
O551        O  0.69343728  0.63580044  0.45005083    -0.82600
O552        O  0.67055046  0.72741518  0.63329401    -0.80900
C553        C  0.61433335  0.83350317  0.46229201     0.87300
O554        O  0.63301096  0.78248001  0.56861733    -0.88000
O555        O  0.57465498  0.76848708  0.52609823    -0.88200
O556        O  0.57981858  0.71735109  0.56784156    -0.75200
Mg557      Mg  0.62322738  0.77205845  0.39924968     1.58000
O558        O  0.54096911  0.78836068  0.40333161    -0.82600
H559        H  0.70624477  0.76971264  0.46290632    -0.06300
O560        O  0.64639961  0.69517675  0.54686889    -0.87900
H561        H  0.62314185  0.64376542  0.55603343    -0.06100
H562        H  0.65860211  0.83252927  0.57377953    -0.06300
C563        C  0.63434337  0.66312098  0.53454341     0.87200
C564        C  0.68417806  0.75914666  0.45482306     0.87800
C565        C  0.65711868  0.80047461  0.56511884     0.87900
H566        H  0.54245961  0.72709826  0.53485817    -0.06300
O567        O  0.56920116  0.71356933  0.44701862    -0.75300
Mg568      Mg  0.62584548  0.72484880  0.59774190     1.58000
H569        H  0.59045416  0.66413424  0.42287150    -0.06300
C570        C  0.70613747  0.62720876  0.48314804     0.92900
O571        O  0.70818981  0.70807668  0.59339163    -0.82500
C572        C  0.69782733  0.71772065  0.62796067     0.92900
O573        O  0.64761384  0.74185763  0.34616438    -0.82500
Mg574      Mg  0.55875581  0.77976624  0.46639544     1.58200
O575        O  0.70474331  0.65083458  0.51403156    -0.80900
O576        O  0.55546786  0.86131038  0.54666439    -0.82600
C577        C  0.98541902  0.02881995  0.47927168     0.30000
C578        C  0.98932951  0.99005542  0.46111765    -0.36400
C579        C  0.00404629  0.96081683  0.48447524     0.15900
C580        C  0.51424759  0.96913692  0.52303159     0.21800
C581        C  0.51030375  0.00789820  0.54121168    -0.34500
C582        C  0.49558791  0.03714773  0.51784268     0.15900
O583        O  0.97161501  0.06035294  0.46328733    -0.26500
C584        C  0.97296791  0.08929479  0.49195406     0.05600
C585        C  0.98768228  0.07661326  0.52657246    -0.31400
O586        O  0.52820981  0.93765573  0.53889105    -0.23200
C587        C  0.52690776  0.90877476  0.51014815    -0.03200
C588        C  0.51205707  0.92143087  0.47563744    -0.17700
H589        H  0.98144668  0.98317989  0.43089659     0.20300
H590        H  0.51823397  0.01479675  0.57140265     0.18700
H591        H  0.49118527  0.09356790  0.55449039     0.18700
H592        H  0.00858844  0.90454018  0.44766885     0.14500
C593        C  0.74355193  0.53836562  0.51257999     0.30000
C594        C  0.75796985  0.51207537  0.53941473    -0.36400
C595        C  0.76396571  0.47241163  0.52468452     0.15900
C596        C  0.75643939  0.45950366  0.48615125     0.21800
C597        C  0.74202688  0.48580598  0.45930180    -0.34500
C598        C  0.73601096  0.52547462  0.47404524     0.15900
O599        O  0.73494083  0.57629216  0.52047863    -0.26500
C600        C  0.72184012  0.58791771  0.48649645     0.05600
C601        C  0.72193018  0.55758738  0.45651544    -0.31400
O602        O  0.76499136  0.42152439  0.47832648    -0.23200
C603        C  0.77801953  0.40990751  0.51237185    -0.03200
C604        C  0.77795160  0.44028751  0.54229373    -0.17700
H605        H  0.76399684  0.52181723  0.56969372     0.20300
H606        H  0.73597376  0.47605051  0.42903650     0.18700
H607        H  0.71208256  0.55857630  0.42672496     0.18700
H608        H  0.78774016  0.43930950  0.57212184     0.14500
C609        C  0.00651766  0.77739835  0.79913227     0.30000
C610        C  0.53631230  0.77252902  0.78711531    -0.36400
C611        C  0.54212558  0.77732037  0.74582212     0.15900
C612        C  0.52021014  0.78700051  0.71836607     0.21800
C613        C  0.99034400  0.79129613  0.73029963    -0.34500
C614        C  0.98443471  0.78574035  0.77148322     0.15900
O615        O  0.99616542  0.77452443  0.83624666    -0.26500
C616        C  0.96698311  0.78040854  0.83231330     0.05600
C617        C  0.95836087  0.78728881  0.79262845    -0.31400
O618        O  0.53059927  0.79007449  0.68127567    -0.23200
C619        C  0.55947544  0.78171016  0.68487676    -0.03200
C620        C  0.56790190  0.77337834  0.72434861    -0.17700
H621        H  0.55370752  0.76525297  0.80843987     0.20300
H622        H  0.97290252  0.79815419  0.70890184     0.18700
H623        H  0.93623915  0.79338814  0.78123658     0.18700
H624        H  0.58974676  0.76522638  0.73545292     0.14500
C625        C  0.95819265  0.78022046  0.24160429     0.30000
C626        C  0.96113601  0.77437298  0.28328415    -0.36400
C627        C  0.49005346  0.77798777  0.29892891     0.15900
C628        C  0.51457383  0.78609161  0.27520552     0.21800
C629        C  0.51155686  0.79261685  0.23355995    -0.34500
C630        C  0.98251368  0.78970504  0.21800491     0.15900
O631        O  0.93336120  0.77695678  0.22048582    -0.26500
C632        C  0.94176101  0.78521018  0.18294569     0.05600
C633        C  0.97205859  0.79361011  0.17963765    -0.31400
O634        O  0.53961973  0.78707364  0.29617735    -0.23200
C635        C  0.53088220  0.78009857  0.33389501    -0.03200
C636        C  0.50029213  0.77440915  0.33734762    -0.17700
H637        H  0.94221543  0.76726080  0.30218128     0.20300
H638        H  0.53051336  0.79933195  0.21459528     0.18700
H639        H  0.98467490  0.80007444  0.15262332     0.18700
H640        H  0.48751997  0.76818800  0.36429215     0.14500
C641        C  0.79076342  0.72161909  0.75522715     0.30000
C642        C  0.78779375  0.72719086  0.71350267    -0.36400
C643        C  0.75900674  0.72223144  0.69773048     0.15900
C644        C  0.73462611  0.71323230  0.72140446     0.21800
C645        C  0.73767508  0.70706907  0.76307859    -0.34500
C646        C  0.76659420  0.71123154  0.77873577     0.15900
O647        O  0.81550029  0.72566159  0.77643737    -0.26500
C648        C  0.80717735  0.71700527  0.81392231     0.05600
C649        C  0.77704005  0.70759603  0.81710859    -0.31400
O650        O  0.70967279  0.71095768  0.70035002    -0.23200
C651        C  0.71833247  0.71793967  0.66262069    -0.03200
C652        C  0.74877927  0.72497028  0.65921966    -0.17700
H653        H  0.80660738  0.73492118  0.69464817     0.20300
H654        H  0.71883880  0.69957177  0.78197017     0.18700
H655        H  0.76451338  0.70047933  0.84403757     0.18700
H656        H  0.76144503  0.73155487  0.63226474     0.14500
C657        C  0.70824415  0.72359749  0.25564719     0.30000
C658        C  0.71158692  0.73019998  0.21415942    -0.36400
C659        C  0.74056403  0.72621864  0.19885549     0.15900
C660        C  0.76480727  0.71714883  0.22272518     0.21800
C661        C  0.76140040  0.71001291  0.26420316    -0.34500
C662        C  0.73227115  0.71321142  0.27938934     0.15900
O663        O  0.68322976  0.72654906  0.27639354    -0.26500
C664        C  0.69121526  0.71717562  0.31381223     0.05600
C665        C  0.72142299  0.70840436  0.31742631    -0.31400
O666        O  0.78992825  0.71544156  0.20195155    -0.23200
C667        C  0.78148023  0.72292322  0.16422799    -0.03200
C668        C  0.75104268  0.72971421  0.16057833    -0.17700
H669        H  0.69288537  0.73786737  0.19510751     0.20300
H670        H  0.78009856  0.70238391  0.28325969     0.18700
H671        H  0.73372119  0.70096429  0.34444654     0.18700
H672        H  0.73849409  0.73631324  0.13353965     0.14500
C673        C  0.00745889  0.22046164  0.70115118     0.30000
C674        C  0.53724917  0.22493604  0.71324946    -0.36400
C675        C  0.54292227  0.22021442  0.75455437     0.15900
C676        C  0.52088343  0.21091904  0.78199230     0.21800
C677        C  0.99100210  0.20691267  0.76995819    -0.34500
C678        C  0.98523500  0.21244330  0.72872155     0.15900
O679        O  0.99723226  0.22369004  0.66403000    -0.26500
C680        C  0.96799085  0.21835445  0.66783853     0.05600
C681        C  0.95919203  0.21144557  0.70747004    -0.31400
O682        O  0.53118483  0.20809526  0.81915682    -0.23200
C683        C  0.56011861  0.21623571  0.81555731    -0.03200
C684        C  0.56866332  0.22414021  0.77605802    -0.17700
H685        H  0.55474422  0.23202770  0.69197708     0.20300
H686        H  0.97344866  0.20042997  0.79132339     0.18700
H687        H  0.93696767  0.20582441  0.71877135     0.18700
H688        H  0.59056301  0.23209823  0.76495880     0.14500
C689        C  0.51502787  0.21532168  0.22466812     0.30000
C690        C  0.51182749  0.20839670  0.26619857    -0.36400
C691        C  0.98280817  0.21173955  0.28168325     0.15900
C692        C  0.95865128  0.22205081  0.25816395     0.21800
C693        C  0.96176776  0.22835662  0.21654306    -0.34500
C694        C  0.49068519  0.22425014  0.20093279     0.15900
O695        O  0.54010227  0.21378324  0.20380565    -0.26500
C696        C  0.53159535  0.22121347  0.16610845     0.05600
C697        C  0.50109738  0.22777731  0.16255754    -0.31400
O698        O  0.93382050  0.22546477  0.27930372    -0.23200
C699        C  0.94208531  0.21646578  0.31674120    -0.03200
C700        C  0.97226718  0.20744653  0.31994312    -0.17700
H701        H  0.53064490  0.20096501  0.28513323     0.20300
H702        H  0.94297753  0.23605140  0.19765943     0.18700
H703        H  0.48849801  0.23441503  0.13557511     0.18700
H704        H  0.98478226  0.20030418  0.34686259     0.14500
C705        C  0.79183910  0.27663008  0.74482954     0.30000
C706        C  0.78868003  0.27013926  0.78636382    -0.36400
C707        C  0.75990416  0.27517340  0.80205741     0.15900
C708        C  0.73568689  0.28510659  0.77847959     0.21800
C709        C  0.73892511  0.29217373  0.73698367    -0.34500
C710        C  0.76785681  0.28791715  0.72141387     0.15900
O711        O  0.81661465  0.27271491  0.72372614    -0.26500
C712        C  0.80852525  0.28235257  0.68641658     0.05600
C713        C  0.77848913  0.29227379  0.68321725    -0.31400
O714        O  0.71071927  0.28740790  0.79948452    -0.23200
C715        C  0.71923667  0.27946869  0.83706707    -0.03200
C716        C  0.74957689  0.27180477  0.84043646    -0.17700
H717        H  0.80735768  0.26171099  0.80514540     0.20300
H718        H  0.72023064  0.30042607  0.71817338     0.18700
H719        H  0.76614063  0.30017630  0.65637453     0.18700
H720        H  0.76211838  0.26452354  0.86729748     0.14500
C721        C  0.76545469  0.28492494  0.27826421     0.30000
C722        C  0.76218239  0.29151577  0.23668063    -0.36400
C723        C  0.73309414  0.28822415  0.22137371     0.15900
C724        C  0.70894835  0.27826832  0.24510842     0.21800
C725        C  0.71214889  0.27225991  0.28674048    -0.34500
C726        C  0.74111737  0.27631788  0.30216097     0.15900
O727        O  0.79056870  0.28657656  0.29905748    -0.26500
C728        C  0.78206275  0.27954312  0.33684897     0.05600
C729        C  0.75155610  0.27310719  0.34051943    -0.31400
O730        O  0.68401106  0.27499024  0.22418425    -0.23200
C731        C  0.69218978  0.28371641  0.18665367    -0.03200
C732        C  0.72242926  0.29240270  0.18317001    -0.17700
H733        H  0.78097813  0.29872402  0.21759839     0.20300
H734        H  0.69336742  0.26487629  0.30579096     0.18700
H735        H  0.73895724  0.26678243  0.36758852     0.18700
H736        H  0.73487515  0.29934364  0.15613082     0.14500
C737        C  0.98603400  0.97080683  0.02114965     0.30000
C738        C  0.99102367  0.00893206  0.04009945    -0.36400
C739        C  0.00521865  0.03856293  0.01662036     0.15900
C740        C  0.51396136  0.03117258  0.97723866     0.21800
C741        C  0.50895551  0.99304711  0.95827528    -0.34500
C742        C  0.49475236  0.96341149  0.98175815     0.15900
O743        O  0.97239230  0.93911136  0.03709759    -0.26500
C744        C  0.97241603  0.91102124  0.00758485     0.05600
C745        C  0.98609266  0.92438103  0.97245067    -0.31400
O746        O  0.52766187  0.06285721  0.96134320    -0.23200
C747        C  0.52762954  0.09092365  0.99088481    -0.03200
C748        C  0.51389372  0.07756469  0.02596944    -0.17700
H749        H  0.98427029  0.01507155  0.07096353     0.20300
H750        H  0.51572366  0.98690116  0.92742189     0.18700
H751        H  0.48841450  0.90818181  0.94388736     0.18700
H752        H  0.01156639  0.09373485  0.05454811     0.14500
C753        C  0.73630784  0.47096700  0.02347842     0.30000
C754        C  0.74042184  0.50985541  0.04133096    -0.36400
C755        C  0.75429885  0.53926010  0.01717994     0.15900
C756        C  0.76354671  0.53095964  0.97818274     0.21800
C757        C  0.75943952  0.49207732  0.96033803    -0.34500
C758        C  0.74556640  0.46268001  0.98448384     0.15900
O759        O  0.72292746  0.43935339  0.04005629    -0.26500
C760        C  0.72366667  0.41041415  0.01133989     0.05600
C761        C  0.73758339  0.42316060  0.97613552    -0.31400
O762        O  0.77689812  0.56256513  0.96156772    -0.23200
C763        C  0.77616645  0.59152886  0.99025342    -0.03200
C764        C  0.76227506  0.57880349  0.02549087    -0.17700
H765        H  0.73324352  0.51672508  0.07186968     0.20300
H766        H  0.76660858  0.48521144  0.92979344     0.18700
H767        H  0.74035802  0.40628382  0.94802020     0.18700
H768        H  0.75950034  0.59571162  0.05358713     0.14500
loop_ 
_geom_bond_atom_site_label_1 
_geom_bond_atom_site_label_2 
_geom_bond_distance 
_geom_bond_site_symmetry_2 
_ccdc_geom_bond_type 
O1           Mg3   2.136   1_554  S
O1           Mg9   2.137       .  S
O1           C36   1.237       .  S
C2           O15   1.237       .  S
C2           O39   1.270       .  A
C2           H41   1.081       .  S
Mg3          O32   2.155       .  S
Mg3          O47   2.298       .  S
Mg3          O43   2.253       .  S
Mg3          O14   2.290       .  S
O4          Mg46   2.154       .  S
O4          Mg29   2.142       .  S
O4           C25   1.240       .  S
O5           C36   1.271       .  A
O5          Mg29   2.304       .  S
C6            O8   1.275       .  A
C6           O20   1.276       .  A
C6          C299   1.472       .  S
O7           C35   1.274   1_554  A
O7           Mg9   2.305       .  S
O8          Mg40   2.281       .  S
Mg9          O15   2.133       .  S
Mg9          O23   2.265       .  S
Mg9          O11   2.312       .  S
C10          O48   1.270       .  A
C10          O16   1.274   1_556  A
C10         C363   1.466       .  S
O11          C18   1.276       .  A
H12          C25   1.081       .  S
C13          O27   1.236       .  S
C13          O28   1.271       .  A
C13          H38   1.082       .  S
O14          C37   1.270       .  A
O15         Mg29   2.148       .  S
O16         Mg46   2.298       .  S
C17          O30   1.272       .  A
C17          O22   1.278       .  A
C17         C312   1.474       .  S
C18          O45   1.275       .  A
C18         C347   1.472       .  S
Mg19         O26   2.129       .  S
Mg19         O27   2.137       .  S
Mg19         O20   2.317       .  S
Mg19         O21   2.306   1_556  S
Mg19         O48   2.257       .  S
O21          C25   1.274       .  A
O22         Mg29   2.335       .  S
O23          C42   1.271       .  A
O24          C44   1.277       .  A
O24         Mg40   2.325       .  S
O26         Mg40   2.146       .  S
O26          C37   1.237       .  S
O27         Mg46   2.137   1_556  S
O28         Mg40   2.302       .  S
Mg29         O45   2.286       .  S
O30         Mg46   2.256       .  S
H31          C36   1.082       .  S
O32         Mg40   2.141       .  S
O32          C35   1.240       .  S
H33          C35   1.081       .  S
H34          C37   1.081       .  S
O39         Mg46   2.291       .  S
C42          O47   1.274   1_554  A
C42         C376   1.469       .  S
O43          C44   1.272       .  A
C44         C331   1.470       .  S
O49         Mg51   2.139   1_554  S
O49         Mg57   2.137       .  S
O49          C84   1.237       .  S
C50          O63   1.237       .  S
C50          O87   1.270       .  A
C50          H89   1.081       .  S
Mg51         O80   2.155       .  S
Mg51         O95   2.298       .  S
Mg51         O91   2.260       .  S
Mg51         O62   2.291       .  S
O52         Mg94   2.154       .  S
O52         Mg77   2.140       .  S
O52          C73   1.240       .  S
O53          C84   1.271       .  A
O53         Mg77   2.304       .  S
C54          O56   1.274       .  A
C54          O68   1.276       .  A
C54         C264   1.471       .  S
O55          C83   1.274       .  A
O55         Mg57   2.305   1_556  S
O56         Mg88   2.282       .  S
Mg57         O63   2.130       .  S
Mg57         O71   2.257       .  S
Mg57         O59   2.314       .  S
C58          O96   1.271       .  A
C58          O64   1.274   1_556  A
C58         C379   1.469       .  S
O59          C66   1.276       .  A
H60          C73   1.081       .  S
C61          O75   1.237       .  S
C61          O76   1.271       .  A
C61          H86   1.081       .  S
O62          C85   1.270       .  A
O63         Mg77   2.146       .  S
O64         Mg94   2.299       .  S
C65          O78   1.272       .  A
C65          O70   1.278       .  A
C65         C283   1.472       .  S
C66          O93   1.274       .  A
C66         C248   1.472       .  S
Mg67         O74   2.133       .  S
Mg67         O75   2.137       .  S
Mg67         O68   2.312       .  S
Mg67         O69   2.304       .  S
Mg67         O96   2.264       .  S
O69          C73   1.274   1_556  A
O70         Mg77   2.333       .  S
O71          C90   1.270       .  A
O72          C92   1.278       .  A
O72         Mg88   2.332       .  S
O74         Mg88   2.147       .  S
O74          C85   1.237       .  S
O75         Mg94   2.137   1_556  S
O76         Mg88   2.304       .  S
Mg77         O93   2.282       .  S
O78         Mg94   2.251       .  S
H79          C84   1.082       .  S
O80         Mg88   2.140       .  S
O80          C83   1.240       .  S
H81          C83   1.081       .  S
H82          C85   1.081       .  S
O87         Mg94   2.290       .  S
C90          O95   1.274   1_554  A
C90         C360   1.466       .  S
O91          C92   1.272       .  A
C92         C232   1.473       .  S
O97         Mg99   2.142       .  S
O97        Mg105   2.140       .  S
O97         C132   1.237       .  S
C98         O111   1.237       .  S
C98         O135   1.270       .  A
C98         H137   1.081       .  S
Mg99        O128   2.155       .  S
Mg99        O143   2.300       .  S
Mg99        O139   2.262       .  S
Mg99        O110   2.291       .  S
O100       Mg142   2.153       .  S
O100       Mg125   2.141       .  S
O100        C121   1.240       .  S
O101        C132   1.272       .  A
O101       Mg125   2.306       .  S
C102        O104   1.274       .  A
C102        O116   1.276       .  A
C102        C328   1.470       .  S
O103        C131   1.273       .  A
O103       Mg105   2.303       .  S
O104       Mg136   2.280       .  S
Mg105       O111   2.134       .  S
Mg105       O119   2.264       .  S
Mg105       O107   2.315       .  S
C106        O144   1.271       .  A
C106        O112   1.274       .  A
C106        C219   1.468       .  S
O107        C114   1.277       .  A
H108        C121   1.081       .  S
C109        O123   1.237       .  S
C109        O124   1.271       .  A
C109        H134   1.082       .  S
O110        C133   1.270       .  A
O111       Mg125   2.147       .  S
O112       Mg142   2.303       .  S
C113        O126   1.272       .  A
C113        O118   1.278       .  A
C113        C344   1.473       .  S
C114        O141   1.275       .  A
C114        C315   1.473       .  S
Mg115       O122   2.131       .  S
Mg115       O123   2.136       .  S
Mg115       O116   2.308       .  S
Mg115       O117   2.305       .  S
Mg115       O144   2.257       .  S
O117        C121   1.274       .  A
O118       Mg125   2.336       .  S
O119        C138   1.271       .  A
O120        C140   1.278       .  A
O120       Mg136   2.328       .  S
O122       Mg136   2.148       .  S
O122        C133   1.237       .  S
O123       Mg142   2.135       .  S
O124       Mg136   2.302       .  S
Mg125       O141   2.284       .  S
O126       Mg142   2.254       .  S
H127        C132   1.082       .  S
O128       Mg136   2.137       .  S
O128        C131   1.240       .  S
H129        C131   1.081       .  S
H130        C133   1.081       .  S
O135       Mg142   2.291       .  S
C138        O143   1.274       .  A
C138        C200   1.469       .  S
O139        C140   1.272       .  A
C140        C296   1.473       .  S
O145       Mg147   2.134       .  S
O145       Mg153   2.135       .  S
O145        C180   1.237       .  S
C146        O159   1.237       .  S
C146        O183   1.270       .  A
C146        H185   1.081       .  S
Mg147       O176   2.154       .  S
Mg147       O191   2.302       .  S
Mg147       O187   2.255       .  S
Mg147       O158   2.292       .  S
O148       Mg190   2.153       .  S
O148       Mg173   2.140       .  S
O148        C169   1.240       .  S
O149        C180   1.271       .  A
O149       Mg173   2.303       .  S
C150        O152   1.275       .  A
C150        O164   1.276       .  A
C150        C235   1.472       .  S
O151        C179   1.274       .  A
O151       Mg153   2.305       .  S
O152       Mg184   2.282       .  S
Mg153       O159   2.132       .  S
Mg153       O167   2.258       .  S
Mg153       O155   2.308       .  S
C154        O192   1.271       .  A
C154        O160   1.274       .  A
C154        C203   1.469       .  S
O155        C162   1.276       .  A
H156        C169   1.081       .  S
C157        O171   1.237       .  S
C157        O172   1.271       .  A
C157        H182   1.081       .  S
O158        C181   1.270       .  A
O159       Mg173   2.148       .  S
O160       Mg190   2.301       .  S
C161        O174   1.272       .  A
C161        O166   1.278       .  A
C161        C251   1.474       .  S
C162        O189   1.275       .  A
C162        C280   1.471       .  S
Mg163       O170   2.134       .  S
Mg163       O171   2.140       .  S
Mg163       O164   2.318       .  S
Mg163       O165   2.304       .  S
Mg163       O192   2.264       .  S
O165        C169   1.273       .  A
O166       Mg173   2.332       .  S
O167        C186   1.271       .  A
O168        C188   1.277       .  A
O168       Mg184   2.329       .  S
O170       Mg184   2.147       .  S
O170        C181   1.237       .  S
O171       Mg190   2.140       .  S
O172       Mg184   2.304       .  S
Mg173       O189   2.284       .  S
O174       Mg190   2.258       .  S
H175        C180   1.082       .  S
O176       Mg184   2.141       .  S
O176        C179   1.240       .  S
H177        C179   1.081       .  S
H178        C181   1.081       .  S
O183       Mg190   2.291       .  S
C186        O191   1.274       .  A
C186        C216   1.468       .  S
O187        C188   1.272       .  A
C188        C267   1.472       .  S
C193        O199   1.318       .  A
C193        C194   1.403   1_545  A
C193        C582   1.380       .  A
C194        H205   1.082       .  S
C194        C195   1.402       .  A
C195        C588   1.361       .  A
C195        C580   1.380       .  A
C196        O202   1.318       .  A
C196        C197   1.403   1_565  A
C196        C579   1.380       .  A
C197        H206   1.082       .  S
C197        C198   1.402   1_455  A
C198        C577   1.380       .  A
C198        C585   1.362       .  A
O199        C200   1.331       .  A
C200        C201   1.392       .  A
C201        H591   1.082       .  S
C201        C582   1.362       .  A
O202        C203   1.331       .  A
C203        C204   1.391       .  A
C204        H592   1.082       .  S
C204        C579   1.361       .  A
H207        C585   1.082       .  S
H208        C588   1.082       .  S
C209        O215   1.318       .  A
C209        C214   1.381       .  A
C209        C210   1.402       .  A
C210        H221   1.082       .  S
C210        C211   1.402       .  A
C211        C220   1.360       .  A
C211        C212   1.381       .  A
C212        O218   1.318       .  A
C212        C213   1.402       .  A
C213        H222   1.082       .  S
C213        C214   1.402       .  A
C214        C217   1.360       .  A
O215        C216   1.330       .  A
C216        C217   1.392       .  A
C217        H223   1.083       .  S
O218        C219   1.330       .  A
C219        C220   1.391       .  A
C220        H224   1.083       .  S
C225        O231   1.319       .  A
C225        C230   1.380       .  A
C225        C610   1.405       .  A
C226        H237   1.082       .  S
C226        C227   1.403       .  A
C226        C609   1.405       .  A
C227        C236   1.364       .  A
C227        C228   1.380       .  A
C228        O234   1.319       .  A
C228        C613   1.405   1_455  A
C229        H238   1.082       .  S
C229        C230   1.404       .  A
C229        C612   1.405       .  A
C230        C233   1.365       .  A
O231        C232   1.332       .  A
C232        C233   1.392       .  A
C233        H239   1.083       .  S
O234        C235   1.332       .  A
C235        C236   1.392       .  A
C236        H240   1.083       .  S
C241        O247   1.320       .  A
C241        C246   1.381       .  A
C241        C242   1.403       .  A
C242        H253   1.082       .  S
C242        C627   1.403       .  A
C243        C252   1.360   1_655  A
C243        C244   1.380   1_655  A
C243        C626   1.403       .  A
C244        O250   1.323       .  A
C244        C245   1.405       .  A
C245        H254   1.082       .  S
C245        C630   1.405   1_455  A
C246        C249   1.363       .  A
C246        C629   1.405       .  A
O247        C248   1.330       .  A
C248        C249   1.393       .  A
C249        H255   1.082       .  S
O250        C251   1.332       .  A
C251        C252   1.391       .  A
C252        H256   1.082   1_455  S
C257        O263   1.320       .  A
C257        C262   1.381       .  A
C257        C258   1.403       .  A
C258        H269   1.083       .  S
C258        C259   1.403       .  A
C259        C268   1.360       .  A
C259        C260   1.381       .  A
C260        O266   1.322       .  A
C260        C261   1.405       .  A
C261        H270   1.082       .  S
C261        C262   1.405       .  A
C262        C265   1.362       .  A
O263        C264   1.331       .  A
C264        C265   1.392       .  A
C265        H271   1.082       .  S
O266        C267   1.331       .  A
C267        C268   1.391       .  A
C268        H272   1.083       .  S
C273        O279   1.320       .  A
C273        C278   1.381       .  A
C273        C274   1.402       .  A
C274        H285   1.082       .  S
C274        C275   1.402       .  A
C275        C284   1.359       .  A
C275        C276   1.381       .  A
C276        O282   1.323       .  A
C276        C277   1.405       .  A
C277        H286   1.082       .  S
C277        C278   1.405       .  A
C278        C281   1.362       .  A
O279        C280   1.330       .  A
C280        C281   1.393       .  A
C281        H287   1.082       .  S
O282        C283   1.332       .  A
C283        C284   1.391       .  A
C284        H288   1.083       .  S
C289        O295   1.318       .  A
C289        C294   1.380       .  A
C289        C674   1.404       .  A
C290        H301   1.082       .  S
C290        C291   1.402       .  A
C290        C673   1.404       .  A
C291        C300   1.363       .  A
C291        C292   1.380       .  A
C292        O298   1.320       .  A
C292        C677   1.406   1_455  A
C293        H302   1.082       .  S
C293        C294   1.405       .  A
C293        C676   1.406       .  A
C294        C297   1.366       .  A
O295        C296   1.331       .  A
C296        C297   1.392       .  A
C297        H303   1.083       .  S
O298        C299   1.332       .  A
C299        C300   1.391       .  A
C300        H304   1.083       .  S
C305        O311   1.322       .  A
C305        C310   1.381   1_455  A
C305        C306   1.405       .  A
C306        H317   1.082       .  S
C306        C691   1.405   1_455  A
C307        C316   1.362       .  A
C307        C308   1.380       .  A
C307        C690   1.405       .  A
C308        O314   1.321       .  A
C308        C309   1.404       .  A
C309        H318   1.082       .  S
C309        C694   1.404       .  A
C310        C313   1.361   1_655  A
C310        C693   1.404       .  A
O311        C312   1.331       .  A
C312        C313   1.392       .  A
C313        H319   1.083   1_455  S
O314        C315   1.331       .  A
C315        C316   1.392       .  A
C316        H320   1.082       .  S
C321        O327   1.320       .  A
C321        C326   1.381       .  A
C321        C322   1.402       .  A
C322        H333   1.083       .  S
C322        C323   1.402       .  A
C323        C332   1.359       .  A
C323        C324   1.381       .  A
C324        O330   1.322       .  A
C324        C325   1.404       .  A
C325        H334   1.082       .  S
C325        C326   1.405       .  A
C326        C329   1.362       .  A
O327        C328   1.330       .  A
C328        C329   1.392       .  A
C329        H335   1.082       .  S
O330        C331   1.331       .  A
C331        C332   1.391       .  A
C332        H336   1.082       .  S
C337        O343   1.323       .  A
C337        C342   1.381       .  A
C337        C338   1.405       .  A
C338        H349   1.082       .  S
C338        C339   1.405       .  A
C339        C348   1.362       .  A
C339        C340   1.381       .  A
C340        O346   1.321       .  A
C340        C341   1.403       .  A
C341        H350   1.082       .  S
C341        C342   1.404       .  A
C342        C345   1.360       .  A
O343        C344   1.332       .  A
C344        C345   1.392       .  A
C345        H351   1.082       .  S
O346        C347   1.331       .  A
C347        C348   1.392       .  A
C348        H352   1.082       .  S
C353        O359   1.317       .  A
C353        C354   1.402   1_565  A
C353        C742   1.381   1_554  A
C354        H365   1.083       .  S
C354        C355   1.401       .  A
C355        C748   1.360       .  A
C355        C740   1.381   1_554  A
C356        O362   1.317       .  A
C356        C357   1.402   1_545  A
C356        C739   1.381   1_556  A
C357        H366   1.083       .  S
C357        C358   1.401   1_455  A
C358        C737   1.381   1_556  A
C358        C745   1.361       .  A
O359        C360   1.330       .  A
C360        C361   1.391   1_554  A
C361        H751   1.082       .  S
C361        C742   1.361       .  A
O362        C363   1.330       .  A
C363        C364   1.391   1_556  A
C364        H752   1.082       .  S
C364        C739   1.360       .  A
H367        C745   1.082       .  S
H368        C748   1.082       .  S
C369        O375   1.318       .  A
C369        C374   1.380   1_554  A
C369        C370   1.403       .  A
C370        H381   1.082       .  S
C370        C371   1.402       .  A
C371        C380   1.361       .  A
C371        C372   1.380   1_554  A
C372        O378   1.318       .  A
C372        C373   1.403       .  A
C373        H382   1.082       .  S
C373        C374   1.402       .  A
C374        C377   1.361       .  A
O375        C376   1.331       .  A
C376        C377   1.391   1_554  A
C377        H383   1.082       .  S
O378        C379   1.331       .  A
C379        C380   1.392   1_556  A
C380        H384   1.082       .  S
O385       Mg387   2.136   1_554  S
O385       Mg393   2.137       .  S
O385        C420   1.237       .  S
C386        O399   1.237       .  S
C386        O423   1.270       .  A
C386        H425   1.081       .  S
Mg387       O416   2.155       .  S
Mg387       O431   2.298       .  S
Mg387       O427   2.253       .  S
Mg387       O398   2.290       .  S
O388       Mg430   2.154       .  S
O388       Mg413   2.142       .  S
O388        C409   1.240       .  S
O389        C420   1.271       .  A
O389       Mg413   2.304       .  S
C390        O392   1.275       .  A
C390        O404   1.276       .  A
C390        C683   1.472       .  S
O391        C419   1.274   1_554  A
O391       Mg393   2.305       .  S
O392       Mg424   2.281       .  S
Mg393       O399   2.133       .  S
Mg393       O407   2.265       .  S
Mg393       O395   2.312       .  S
C394        O432   1.270       .  A
C394        O400   1.274   1_556  A
C394        C747   1.466       .  S
O395        C402   1.276       .  A
H396        C409   1.081       .  S
C397        O411   1.236       .  S
C397        O412   1.271       .  A
C397        H422   1.082       .  S
O398        C421   1.270       .  A
O399       Mg413   2.148       .  S
O400       Mg430   2.298       .  S
C401        O414   1.272       .  A
C401        O406   1.278       .  A
C401        C696   1.474       .  S
C402        O429   1.275       .  A
C402        C731   1.472       .  S
Mg403       O410   2.129       .  S
Mg403       O411   2.137       .  S
Mg403       O404   2.317       .  S
Mg403       O405   2.306   1_556  S
Mg403       O432   2.257       .  S
O405        C409   1.274       .  A
O406       Mg413   2.335       .  S
O407        C426   1.271       .  A
O408        C428   1.277       .  A
O408       Mg424   2.325       .  S
O410       Mg424   2.146       .  S
O410        C421   1.237       .  S
O411       Mg430   2.137   1_556  S
O412       Mg424   2.302       .  S
Mg413       O429   2.286       .  S
O414       Mg430   2.256       .  S
H415        C420   1.082       .  S
O416       Mg424   2.141       .  S
O416        C419   1.240       .  S
H417        C419   1.081       .  S
H418        C421   1.081       .  S
O423       Mg430   2.291       .  S
C426        O431   1.274   1_554  A
C426        C760   1.469       .  S
O427        C428   1.272       .  A
C428        C715   1.470       .  S
O433       Mg435   2.139   1_554  S
O433       Mg441   2.137       .  S
O433        C468   1.237       .  S
C434        O447   1.237       .  S
C434        O471   1.270       .  A
C434        H473   1.081       .  S
Mg435       O464   2.155       .  S
Mg435       O479   2.298       .  S
Mg435       O475   2.260       .  S
Mg435       O446   2.291       .  S
O436       Mg478   2.154       .  S
O436       Mg461   2.140       .  S
O436        C457   1.240       .  S
O437        C468   1.271       .  A
O437       Mg461   2.304       .  S
C438        O440   1.274       .  A
C438        O452   1.276       .  A
C438        C648   1.471       .  S
O439        C467   1.274       .  A
O439       Mg441   2.305   1_556  S
O440       Mg472   2.282       .  S
Mg441       O447   2.130       .  S
Mg441       O455   2.257       .  S
Mg441       O443   2.314       .  S
C442        O480   1.271       .  A
C442        O448   1.274   1_556  A
C442        C763   1.469       .  S
O443        C450   1.276       .  A
H444        C457   1.081       .  S
C445        O459   1.237       .  S
C445        O460   1.271       .  A
C445        H470   1.082       .  S
O446        C469   1.270       .  A
O447       Mg461   2.146       .  S
O448       Mg478   2.299       .  S
C449        O462   1.272       .  A
C449        O454   1.278       .  A
C449        C667   1.472       .  S
C450        O477   1.274       .  A
C450        C632   1.472       .  S
Mg451       O458   2.133       .  S
Mg451       O459   2.137       .  S
Mg451       O452   2.312       .  S
Mg451       O453   2.304       .  S
Mg451       O480   2.264       .  S
O453        C457   1.274   1_556  A
O454       Mg461   2.333       .  S
O455        C474   1.270       .  A
O456        C476   1.278       .  A
O456       Mg472   2.332       .  S
O458       Mg472   2.147       .  S
O458        C469   1.237       .  S
O459       Mg478   2.137   1_556  S
O460       Mg472   2.304       .  S
Mg461       O477   2.282       .  S
O462       Mg478   2.251       .  S
H463        C468   1.082       .  S
O464       Mg472   2.140       .  S
O464        C467   1.240       .  S
H465        C467   1.081       .  S
H466        C469   1.081       .  S
O471       Mg478   2.290       .  S
C474        O479   1.274   1_554  A
C474        C744   1.466       .  S
O475        C476   1.272       .  A
C476        C616   1.473       .  S
O481       Mg483   2.142       .  S
O481       Mg489   2.140       .  S
O481        C516   1.237       .  S
C482        O495   1.237       .  S
C482        O519   1.270       .  A
C482        H521   1.081       .  S
Mg483       O512   2.155       .  S
Mg483       O527   2.300       .  S
Mg483       O523   2.262       .  S
Mg483       O494   2.291       .  S
O484       Mg526   2.153       .  S
O484       Mg509   2.141       .  S
O484        C505   1.240       .  S
O485        C516   1.272       .  A
O485       Mg509   2.306       .  S
C486        O488   1.274       .  A
C486        O500   1.276       .  A
C486        C712   1.470       .  S
O487        C515   1.273       .  A
O487       Mg489   2.303       .  S
O488       Mg520   2.280       .  S
Mg489       O495   2.134       .  S
Mg489       O503   2.264       .  S
Mg489       O491   2.315       .  S
C490        O528   1.271       .  A
C490        O496   1.274       .  A
C490        C603   1.468       .  S
O491        C498   1.277       .  A
H492        C505   1.081       .  S
C493        O507   1.237       .  S
C493        O508   1.271       .  A
C493        H518   1.082       .  S
O494        C517   1.270       .  A
O495       Mg509   2.147       .  S
O496       Mg526   2.303       .  S
C497        O510   1.272       .  A
C497        O502   1.278       .  A
C497        C728   1.473       .  S
C498        O525   1.275       .  A
C498        C699   1.473       .  S
Mg499       O506   2.131       .  S
Mg499       O507   2.136       .  S
Mg499       O500   2.308       .  S
Mg499       O501   2.305       .  S
Mg499       O528   2.257       .  S
O501        C505   1.274       .  A
O502       Mg509   2.336       .  S
O503        C522   1.271       .  A
O504        C524   1.278       .  A
O504       Mg520   2.328       .  S
O506       Mg520   2.148       .  S
O506        C517   1.237       .  S
O507       Mg526   2.135       .  S
O508       Mg520   2.302       .  S
Mg509       O525   2.284       .  S
O510       Mg526   2.254       .  S
H511        C516   1.082       .  S
O512       Mg520   2.137       .  S
O512        C515   1.240       .  S
H513        C515   1.081       .  S
H514        C517   1.081       .  S
O519       Mg526   2.291       .  S
C522        O527   1.274       .  A
C522        C584   1.469       .  S
O523        C524   1.272       .  A
C524        C680   1.473       .  S
O529       Mg531   2.134       .  S
O529       Mg537   2.135       .  S
O529        C564   1.237       .  S
C530        O543   1.237       .  S
C530        O567   1.270       .  A
C530        H569   1.081       .  S
Mg531       O560   2.154       .  S
Mg531       O575   2.302       .  S
Mg531       O571   2.255       .  S
Mg531       O542   2.292       .  S
O532       Mg574   2.153       .  S
O532       Mg557   2.140       .  S
O532        C553   1.240       .  S
O533        C564   1.271       .  A
O533       Mg557   2.303       .  S
C534        O536   1.275       .  A
C534        O548   1.276       .  A
C534        C619   1.472       .  S
O535        C563   1.274       .  A
O535       Mg537   2.305       .  S
O536       Mg568   2.282       .  S
Mg537       O543   2.132       .  S
Mg537       O551   2.258       .  S
Mg537       O539   2.308       .  S
C538        O576   1.271       .  A
C538        O544   1.274       .  A
C538        C587   1.469       .  S
O539        C546   1.276       .  A
H540        C553   1.081       .  S
C541        O555   1.237       .  S
C541        O556   1.271       .  A
C541        H566   1.082       .  S
O542        C565   1.270       .  A
O543       Mg557   2.148       .  S
O544       Mg574   2.301       .  S
C545        O558   1.272       .  A
C545        O550   1.278       .  A
C545        C635   1.474       .  S
C546        O573   1.275       .  A
C546        C664   1.471       .  S
Mg547       O554   2.134       .  S
Mg547       O555   2.140       .  S
Mg547       O548   2.318       .  S
Mg547       O549   2.304       .  S
Mg547       O576   2.264       .  S
O549        C553   1.273       .  A
O550       Mg557   2.332       .  S
O551        C570   1.271       .  A
O552        C572   1.277       .  A
O552       Mg568   2.329       .  S
O554       Mg568   2.147       .  S
O554        C565   1.237       .  S
O555       Mg574   2.140       .  S
O556       Mg568   2.304       .  S
Mg557       O573   2.284       .  S
O558       Mg574   2.258       .  S
H559        C564   1.081       .  S
O560       Mg568   2.141       .  S
O560        C563   1.240       .  S
H561        C563   1.081       .  S
H562        C565   1.081       .  S
O567       Mg574   2.291       .  S
C570        O575   1.274       .  A
C570        C600   1.468       .  S
O571        C572   1.272       .  A
C572        C651   1.472       .  S
C577        O583   1.318       .  A
C577        C578   1.403   1_545  A
C578        H589   1.082       .  S
C578        C579   1.402   1_655  A
C580        O586   1.318       .  A
C580        C581   1.403   1_565  A
C581        H590   1.082       .  S
C581        C582   1.402       .  A
O583        C584   1.331       .  A
C584        C585   1.392       .  A
O586        C587   1.331       .  A
C587        C588   1.391       .  A
C593        O599   1.318       .  A
C593        C598   1.381       .  A
C593        C594   1.402       .  A
C594        H605   1.082       .  S
C594        C595   1.402       .  A
C595        C604   1.360       .  A
C595        C596   1.381       .  A
C596        O602   1.318       .  A
C596        C597   1.402       .  A
C597        H606   1.082       .  S
C597        C598   1.402       .  A
C598        C601   1.360       .  A
O599        C600   1.330       .  A
C600        C601   1.392       .  A
C601        H607   1.082       .  S
O602        C603   1.330       .  A
C603        C604   1.391       .  A
C604        H608   1.083       .  S
C609        O615   1.319   1_455  A
C609        C614   1.380   1_455  A
C610        H621   1.082       .  S
C610        C611   1.403       .  A
C611        C620   1.364       .  A
C611        C612   1.380       .  A
C612        O618   1.319       .  A
C613        H622   1.082       .  S
C613        C614   1.404       .  A
C614        C617   1.365       .  A
O615        C616   1.332       .  A
C616        C617   1.392       .  A
C617        H623   1.083       .  S
O618        C619   1.332       .  A
C619        C620   1.392       .  A
C620        H624   1.083       .  S
C625        O631   1.320       .  A
C625        C630   1.381       .  A
C625        C626   1.403       .  A
C626        H637   1.082       .  S
C627        C636   1.360       .  A
C627        C628   1.380       .  A
C628        O634   1.323       .  A
C628        C629   1.405       .  A
C629        H638   1.082       .  S
C630        C633   1.363       .  A
O631        C632   1.330       .  A
C632        C633   1.393       .  A
C633        H639   1.082       .  S
O634        C635   1.332       .  A
C635        C636   1.391       .  A
C636        H640   1.082       .  S
C641        O647   1.320       .  A
C641        C646   1.381       .  A
C641        C642   1.403       .  A
C642        H653   1.082       .  S
C642        C643   1.403       .  A
C643        C652   1.360       .  A
C643        C644   1.381       .  A
C644        O650   1.322       .  A
C644        C645   1.405       .  A
C645        H654   1.082       .  S
C645        C646   1.405       .  A
C646        C649   1.362       .  A
O647        C648   1.331       .  A
C648        C649   1.392       .  A
C649        H655   1.082       .  S
O650        C651   1.331       .  A
C651        C652   1.391       .  A
C652        H656   1.083       .  S
C657        O663   1.320       .  A
C657        C662   1.381       .  A
C657        C658   1.402       .  A
C658        H669   1.082       .  S
C658        C659   1.402       .  A
C659        C668   1.359       .  A
C659        C660   1.381       .  A
C660        O666   1.323       .  A
C660        C661   1.405       .  A
C661        H670   1.082       .  S
C661        C662   1.405       .  A
C662        C665   1.362       .  A
O663        C664   1.330       .  A
C664        C665   1.393       .  A
C665        H671   1.082       .  S
O666        C667   1.332       .  A
C667        C668   1.391       .  A
C668        H672   1.083       .  S
C673        O679   1.318   1_455  A
C673        C678   1.380   1_455  A
C674        H685   1.082       .  S
C674        C675   1.402       .  A
C675        C684   1.363       .  A
C675        C676   1.380       .  A
C676        O682   1.320       .  A
C677        H686   1.082       .  S
C677        C678   1.405       .  A
C678        C681   1.366       .  A
O679        C680   1.331       .  A
C680        C681   1.392       .  A
C681        H687   1.083       .  S
O682        C683   1.332       .  A
C683        C684   1.391       .  A
C684        H688   1.083       .  S
C689        O695   1.322       .  A
C689        C694   1.381       .  A
C689        C690   1.405       .  A
C690        H701   1.082       .  S
C691        C700   1.362       .  A
C691        C692   1.380       .  A
C692        O698   1.321       .  A
C692        C693   1.404       .  A
C693        H702   1.082       .  S
C694        C697   1.361       .  A
O695        C696   1.331       .  A
C696        C697   1.392       .  A
C697        H703   1.082       .  S
O698        C699   1.331       .  A
C699        C700   1.392       .  A
C700        H704   1.082       .  S
C705        O711   1.320       .  A
C705        C710   1.381       .  A
C705        C706   1.402       .  A
C706        H717   1.083       .  S
C706        C707   1.402       .  A
C707        C716   1.359       .  A
C707        C708   1.381       .  A
C708        O714   1.322       .  A
C708        C709   1.404       .  A
C709        H718   1.082       .  S
C709        C710   1.405       .  A
C710        C713   1.362       .  A
O711        C712   1.330       .  A
C712        C713   1.392       .  A
C713        H719   1.082       .  S
O714        C715   1.331       .  A
C715        C716   1.391       .  A
C716        H720   1.082       .  S
C721        O727   1.323       .  A
C721        C726   1.381       .  A
C721        C722   1.405       .  A
C722        H733   1.082       .  S
C722        C723   1.405       .  A
C723        C732   1.362       .  A
C723        C724   1.381       .  A
C724        O730   1.321       .  A
C724        C725   1.403       .  A
C725        H734   1.082       .  S
C725        C726   1.404       .  A
C726        C729   1.360       .  A
O727        C728   1.332       .  A
C728        C729   1.392       .  A
C729        H735   1.082       .  S
O730        C731   1.331       .  A
C731        C732   1.392       .  A
C732        H736   1.082       .  S
C737        O743   1.317       .  A
C737        C738   1.402   1_565  A
C738        H749   1.083       .  S
C738        C739   1.401   1_655  A
C740        O746   1.317       .  A
C740        C741   1.402   1_545  A
C741        H750   1.083       .  S
C741        C742   1.401       .  A
O743        C744   1.330       .  A
C744        C745   1.391   1_554  A
O746        C747   1.330       .  A
C747        C748   1.391   1_556  A
C753        O759   1.318       .  A
C753        C758   1.380   1_554  A
C753        C754   1.403       .  A
C754        H765   1.082       .  S
C754        C755   1.402       .  A
C755        C764   1.361       .  A
C755        C756   1.380   1_554  A
C756        O762   1.318       .  A
C756        C757   1.403       .  A
C757        H766   1.082       .  S
C757        C758   1.402       .  A
C758        C761   1.361       .  A
O759        C760   1.331       .  A
C760        C761   1.391   1_554  A
C761        H767   1.082       .  S
O762        C763   1.331       .  A
C763        C764   1.392   1_556  A
C764        H768   1.082       .  S
