geometry optimzed in LAMMPS
_audit_creation_date              2020-11-30 
_audit_creation_method            'lammps2cif' 
_symmetry_space_group_name_H-M    'P1' 
_symmetry_Int_Tables_number       1 
_symmetry_cell_setting            triclinic 
loop_ 
_symmetry_equiv_pos_as_xyz 
  x,y,z 
_cell_length_a                    45.84497936 
_cell_length_b                    58.761610158028724 
_cell_length_c                    35.225306886152254 
_cell_angle_alpha                 89.36269899501808 
_cell_angle_beta                  127.67158376129082 
_cell_angle_gamma                 90.73542264267189 
loop_ 
_atom_site_label 
_atom_site_type_symbol 
_atom_site_fract_x 
_atom_site_fract_y 
_atom_site_fract_z 
_atom_site_charge 
N1          N  0.95135505  0.57062077  0.81888217    -0.02800
C2          C  0.94673932  0.58392970  0.78392319    -0.00200
C3          C  0.98013128  0.59316020  0.79918632    -0.23100
C4          C  0.00606220  0.58545703  0.84526812    -0.23300
C5          C  0.98763791  0.57179585  0.85672814    -0.00300
H6          H  0.98467365  0.60541481  0.78008614     0.13500
H7          H  0.03447048  0.59111560  0.86939770     0.13500
N8          N  0.05812886  0.58263386  0.08646909    -0.02800
C9          C  0.08385096  0.59663480  0.12235679    -0.00200
C10         C  0.11095419  0.60155220  0.11735458    -0.23100
C11         C  0.10112432  0.59067363  0.07664879    -0.23300
C12         C  0.06809841  0.57962892  0.05771514    -0.00300
H13         H  0.13348617  0.61356731  0.13834971     0.13500
H14         H  0.11453234  0.59264073  0.06001861     0.13500
N15         N  0.83256212  0.69359813  0.43116804    -0.26600
N16         N  0.84679271  0.67347658  0.44999429    -0.34500
C17         C  0.86941498  0.66786681  0.43929217     0.01700
C18         C  0.86948990  0.68548409  0.41261947     0.07700
C19         C  0.84526444  0.70133350  0.40775697    -0.05300
H20         H  0.88611772  0.65270200  0.45222946     0.08400
H21         H  0.83779799  0.71759245  0.38956320     0.09600
Cu22       Cu  0.83661185  0.65688156  0.49342082     0.44200
Cu23       Cu  0.79951772  0.71043608  0.44240208     0.42000
Cu24       Cu  0.78216309  0.68726537  0.52276336     0.43900
N25         N  0.82921531  0.64592809  0.54349470    -0.34000
N26         N  0.81142351  0.65707173  0.55609658    -0.28300
C27         C  0.81734471  0.64645782  0.59444218    -0.04400
C28         C  0.83949460  0.62758780  0.60613978     0.07900
C29         C  0.84629832  0.62796198  0.57285671     0.01700
H30         H  0.80759929  0.65261214  0.61369553     0.09300
H31         H  0.86500794  0.61712946  0.57247525     0.08400
N32         N  0.75638191  0.71647360  0.48040232    -0.35500
N33         N  0.76398803  0.72468045  0.45229471    -0.27600
C34         C  0.74344539  0.74307400  0.42901578    -0.02900
C35         C  0.72102006  0.74696360  0.44224876     0.05700
C36         C  0.73020505  0.72960933  0.47525357     0.03800
H37         H  0.74505577  0.75280475  0.40413514     0.08900
H38         H  0.71855202  0.72632085  0.49371481     0.07800
N39         N  0.01744233  0.70977777  0.36983714    -0.26600
N40         N  0.00639931  0.69085664  0.34445277    -0.34500
C41         C  0.97908648  0.68126327  0.34340304     0.01700
C42         C  0.97251528  0.69485156  0.36934482     0.07700
C43         C  0.99742332  0.71275601  0.38549667    -0.05300
H44         H  0.96442660  0.66594049  0.32385527     0.08400
H45         H  0.00071307  0.72704500  0.40694353     0.09600
Cu46       Cu  0.02790702  0.67958460  0.31074311     0.44200
Cu47       Cu  0.05782588  0.73158246  0.38042942     0.42000
Cu48       Cu  0.09493477  0.71723889  0.31857110     0.43900
N49         N  0.05314668  0.67268009  0.27955781    -0.34000
N50         N  0.07715658  0.68651666  0.28185143    -0.28300
C51         C  0.08741800  0.67740353  0.25684561    -0.04400
C52         C  0.06906305  0.65682556  0.23804037     0.07900
C53         C  0.04773822  0.65432273  0.25339186     0.01700
H54         H  0.10702939  0.68513640  0.25300372     0.09300
H55         H  0.02905360  0.64042641  0.24529150     0.08400
N56         N  0.10818817  0.74705721  0.35738790    -0.35500
N57         N  0.09543856  0.75208331  0.38127161    -0.27600
C58         C  0.10904524  0.77249458  0.40241800    -0.02900
C59         C  0.13114034  0.78078699  0.39085228     0.05700
C60         C  0.12984364  0.76423908  0.36216245     0.03800
H61         H  0.10231449  0.78098878  0.42322858     0.08900
H62         H  0.14358680  0.76468883  0.34583229     0.07800
N63         N  0.55699438  0.02729888  0.08616692    -0.02800
C64         C  0.58413995  0.01450168  0.12348278    -0.00200
C65         C  0.61217661  0.01150106  0.11979659    -0.23100
C66         C  0.60195130  0.02273075  0.07895266    -0.23300
C67         C  0.56767190  0.03199722  0.05843195    -0.00300
H68         H  0.63608416  0.00077422  0.14227976     0.13500
H69         H  0.61627645  0.02220363  0.06342366     0.13500
N70         N  0.45476195  0.03655134  0.81944565    -0.02800
C71         C  0.45321509  0.02588887  0.78434694    -0.00200
C72         C  0.48829190  0.02119729  0.79956827    -0.23100
C73         C  0.51226181  0.02924492  0.84567644    -0.23300
C74         C  0.49099836  0.03859396  0.85717775    -0.00300
H75         H  0.49552732  0.01158557  0.78041051     0.13500
H76         H  0.54173104  0.02660586  0.86956782     0.13500
N77         N  0.50893553  0.89211610  0.35697871    -0.26600
N78         N  0.50083049  0.91242641  0.33640625    -0.34500
C79         C  0.47449254  0.92179721  0.33688604     0.01700
C80         C  0.46538982  0.90668719  0.35860691     0.07700
C81         C  0.48789451  0.88807287  0.37102077    -0.05300
H82         H  0.46301460  0.93849282  0.32268028     0.08400
H83         H  0.48986319  0.87297830  0.39027758     0.09600
Cu84       Cu  0.52581061  0.92742144  0.30933658     0.44200
Cu85       Cu  0.54852726  0.87059377  0.36658110     0.42000
Cu86       Cu  0.59581700  0.89348782  0.32276510     0.43900
N87         N  0.55448345  0.93772350  0.28406926    -0.34000
N88         N  0.58009102  0.92496470  0.28890151    -0.28300
C89         C  0.59192216  0.93506328  0.26614531    -0.04400
C90         C  0.57285247  0.95518654  0.24589675     0.07900
C91         C  0.54951442  0.95644746  0.25833370     0.01700
H92         H  0.61240909  0.92799138  0.26375046     0.09300
H93         H  0.52921597  0.96941804  0.24753554     0.08400
N94         N  0.60564026  0.86130150  0.35286246    -0.35500
N95         N  0.58831229  0.85267744  0.36895373    -0.27600
C96         C  0.60056787  0.83141905  0.38528258    -0.02900
C97         C  0.62677102  0.82632209  0.37882896     0.05700
C98         C  0.62933405  0.84584922  0.35846642     0.03800
H99         H  0.59080874  0.82042899  0.40027794     0.08900
H100        H  0.64752092  0.84896999  0.34912900     0.07800
N101        N  0.32931384  0.91566064  0.42499910    -0.26600
N102        N  0.34801537  0.93419377  0.44859397    -0.34500
C103        C  0.37266862  0.93868983  0.44058534     0.01700
C104        C  0.36912050  0.92215528  0.41008386     0.07700
C105        C  0.34124080  0.90786577  0.40104776    -0.05300
H106        H  0.39295147  0.95221686  0.45803259     0.08400
H107        H  0.33104483  0.89248701  0.37987312     0.09600
Cu108      Cu  0.34109790  0.95036001  0.49440690     0.44200
Cu109      Cu  0.29192616  0.90055197  0.43166704     0.42000
Cu110      Cu  0.28502159  0.92069901  0.52283356     0.43900
N111        N  0.33597217  0.96074324  0.54598511    -0.34000
N112        N  0.31741915  0.94973334  0.55817287    -0.28300
C113        C  0.32474263  0.95964831  0.59753546    -0.04400
C114        C  0.34881205  0.97780044  0.61038626     0.07900
C115        C  0.35500658  0.97797444  0.57661817     0.01700
H116        H  0.31425606  0.95359749  0.61624445     0.09300
H117        H  0.37421632  0.98878587  0.57645571     0.08400
N118        N  0.25536194  0.89271555  0.47871726    -0.35500
N119        N  0.25814862  0.88599159  0.44537570    -0.27600
C120        C  0.23614363  0.86791738  0.42246007    -0.02900
C121        C  0.21807727  0.86285291  0.44169251     0.05700
C122        C  0.23124389  0.87881164  0.47779441     0.03800
H123        H  0.23432975  0.85878161  0.39459146     0.08900
H124        H  0.22373983  0.88026514  0.50141578     0.07800
N125        N  0.33564562  0.07970886  0.80001346    -0.02800
C126        C  0.30691911  0.09002125  0.75944767    -0.00200
C127        C  0.27707368  0.09105259  0.76004593    -0.23100
C128        C  0.28794418  0.08148797  0.80258697    -0.23300
C129        C  0.32415290  0.07490189  0.82680312    -0.00300
H130        H  0.25100282  0.09928220  0.73381848     0.13500
H131        H  0.27200973  0.08095077  0.81588023     0.13500
N132        N  0.43626923  0.06742583  0.06723273    -0.02800
C133        C  0.43803403  0.07500607  0.10468002    -0.00200
C134        C  0.40305062  0.07901873  0.09051069    -0.23100
C135        C  0.37892118  0.07343695  0.04264127    -0.23300
C136        C  0.40006651  0.06636697  0.02912065    -0.00300
H137        H  0.39600446  0.08658378  0.11179505     0.13500
H138        H  0.34941669  0.07597371  0.01944811     0.13500
N139        N  0.55527321  0.18161420  0.45093643    -0.26600
N140        N  0.54064922  0.16149986  0.43231170    -0.34500
C141        C  0.51328055  0.15738942  0.43552963     0.01700
C142        C  0.51047219  0.17592042  0.45735299     0.07700
C143        C  0.53802362  0.19081273  0.46698756    -0.05300
H144        H  0.49572122  0.14244140  0.42107612     0.08400
H145        H  0.54507617  0.20731064  0.48377623     0.09600
Cu146      Cu  0.55666316  0.14267111  0.39863177     0.44200
Cu147      Cu  0.59471257  0.19667340  0.44782276     0.42000
Cu148      Cu  0.61341206  0.17290756  0.37086215     0.43900
N149        N  0.56578604  0.13121438  0.35137336    -0.34000
N150        N  0.58400057  0.14251160  0.33895995    -0.28300
C151        C  0.57618851  0.13293374  0.29907939    -0.04400
C152        C  0.55213674  0.11476888  0.28602572     0.07900
C153        C  0.54660770  0.11410679  0.32038424     0.01700
H154        H  0.58484295  0.13987409  0.27879256     0.09300
H155        H  0.52639992  0.10380741  0.31936108     0.08400
N156        N  0.63676262  0.20361142  0.40787034    -0.35500
N157        N  0.62956702  0.21174279  0.43613608    -0.27600
C158        C  0.64761604  0.23150779  0.45496901    -0.02900
C159        C  0.66755297  0.23643008  0.43818484     0.05700
C160        C  0.65989842  0.21824148  0.40814159     0.03800
H161        H  0.64570277  0.24175106  0.47867623     0.08900
H162        H  0.67060875  0.21558884  0.38843673     0.07800
N163        N  0.35813021  0.20390492  0.49074928    -0.26600
N164        N  0.36659494  0.18393642  0.51269013    -0.34500
C165        C  0.39236291  0.17395797  0.51176799     0.01700
C166        C  0.40070769  0.18826409  0.48810777     0.07700
C167        C  0.37855687  0.20714822  0.47548139    -0.05300
H168        H  0.40489432  0.15778697  0.52858850     0.08400
H169        H  0.37738171  0.22218854  0.45660994     0.09600
Cu170      Cu  0.34493879  0.17110088  0.54562804     0.44200
Cu171      Cu  0.31979548  0.22617611  0.48328024     0.42000
Cu172      Cu  0.28089138  0.20700566  0.54209839     0.43900
N173        N  0.32221754  0.16266248  0.57965430    -0.34000
N174        N  0.29879063  0.17599072  0.57865230    -0.28300
C175        C  0.29036090  0.16652458  0.60578241    -0.04400
C176        C  0.30939996  0.14618674  0.62493426     0.07900
C177        C  0.32934976  0.14436547  0.60740333     0.01700
H178        H  0.27199985  0.17410059  0.61157275     0.09300
H179        H  0.34884777  0.13129494  0.61566758     0.08400
N180        N  0.26667589  0.23744578  0.50378715    -0.35500
N181        N  0.28082701  0.24464803  0.48243025    -0.27600
C182        C  0.26624160  0.26507170  0.46192625    -0.02900
C183        C  0.24143038  0.27094925  0.47039623     0.05700
C184        C  0.24272443  0.25299859  0.49731425     0.03800
H185        H  0.27317244  0.27490549  0.44225715     0.08900
H186        H  0.22817885  0.25154384  0.51244973     0.07800
N187        N  0.94492470  0.53183375  0.07137762    -0.02800
C188        C  0.94821171  0.52128572  0.10806103    -0.00200
C189        C  0.91413682  0.51395202  0.09371638    -0.23100
C190        C  0.88903945  0.52019074  0.04631456    -0.23300
C191        C  0.90871589  0.53106191  0.03327960    -0.00300
H192        H  0.90854151  0.50373036  0.11438265     0.13500
H193        H  0.86020769  0.51535789  0.02280272     0.13500
N194        N  0.84450635  0.51392917  0.80723857    -0.02800
C195        C  0.82246600  0.49758625  0.77475004    -0.00200
C196        C  0.79651921  0.49064795  0.78072525    -0.23100
C197        C  0.80338207  0.50272741  0.81862722    -0.23300
C198        C  0.83347118  0.51656491  0.83489836    -0.00300
H199        H  0.77659826  0.47697285  0.76197931     0.13500
H200        H  0.79033686  0.49994113  0.83555667     0.13500
N201        N  0.85859444  0.39219644  0.48881836    -0.26600
N202        N  0.86850162  0.41182612  0.51177336    -0.34500
C203        C  0.89337407  0.42221681  0.50891926     0.01700
C204        C  0.89972955  0.40852142  0.48301921     0.07700
C205        C  0.87710911  0.38962632  0.47080456    -0.05300
H206        H  0.90755750  0.43785789  0.52726393     0.08400
H207        H  0.87522664  0.37468062  0.45174080     0.09600
Cu208      Cu  0.85232785  0.42283952  0.55167658     0.44200
Cu209      Cu  0.82324208  0.36859490  0.48684857     0.42000
Cu210      Cu  0.79325754  0.38446735  0.55659548     0.43900
N211        N  0.83595237  0.42871502  0.59368535    -0.34000
N212        N  0.81439072  0.41446145  0.59564271    -0.28300
C213        C  0.80974579  0.42236770  0.62721850    -0.04400
C214        C  0.82952137  0.44253049  0.64632982     0.07900
C215        C  0.84554466  0.44613932  0.62385451     0.01700
H216        H  0.79291619  0.41406393  0.63527581     0.09300
H217        H  0.86349179  0.46009591  0.62973785     0.08400
N218        N  0.77752926  0.35431546  0.51816122    -0.35500
N219        N  0.78858065  0.34821425  0.49283374    -0.27600
C220        C  0.77425935  0.32752807  0.47372147    -0.02900
C221        C  0.75332595  0.32013292  0.48795116     0.05700
C222        C  0.75592472  0.33779606  0.51578815     0.03800
H223        H  0.77927881  0.31837484  0.45177193     0.08900
H224        H  0.74284906  0.33886966  0.53285432     0.07800
N225        N  0.05898097  0.41205598  0.45422075    -0.26600
N226        N  0.04596933  0.43247266  0.43610561    -0.34500
C227        C  0.01951731  0.43739986  0.44034803     0.01700
C228        C  0.01540741  0.41908349  0.46204250     0.07700
C229        C  0.04145853  0.40347071  0.47087565    -0.05300
H230        H  0.00288608  0.45258418  0.42579223     0.08400
H231        H  0.04684503  0.38675128  0.48677159     0.09600
Cu232      Cu  0.06089083  0.45052194  0.39958255     0.44200
Cu233      Cu  0.09548583  0.39545448  0.44812757     0.42000
Cu234      Cu  0.11529608  0.42063087  0.37134145     0.43900
N235        N  0.06910109  0.46212439  0.35110002    -0.34000
N236        N  0.08723007  0.45110328  0.33892172    -0.28300
C237        C  0.08089136  0.46143374  0.30014571    -0.04400
C238        C  0.05799671  0.47993733  0.28770882     0.07900
C239        C  0.05124201  0.47971784  0.32098569     0.01700
H240        H  0.09036131  0.45510119  0.28068961     0.09300
H241        H  0.03171466  0.49013677  0.32046049     0.08400
N242        N  0.13616149  0.38926897  0.40630624    -0.35500
N243        N  0.12796691  0.38019705  0.43329614    -0.27600
C244        C  0.14307600  0.35946204  0.44810864    -0.02900
C245        C  0.16214956  0.35513545  0.43016977     0.05700
C246        C  0.15727119  0.37448800  0.40386066     0.03800
H247        H  0.14017506  0.34825631  0.47021688     0.08900
H248        H  0.16710662  0.37728119  0.38301397     0.07800
C249        C  0.92874625  0.41157894  0.47679789    -0.04800
C250        C  0.94580496  0.39233290  0.47541051    -0.32200
C251        C  0.97440166  0.39440422  0.47170806     0.37000
C252        C  0.98639118  0.41614739  0.46862044    -0.05100
C253        C  0.96911975  0.43545511  0.46982190    -0.32100
C254        C  0.94055836  0.43332774  0.47372451     0.36900
H255        H  0.93741250  0.37543896  0.47798383     0.17300
O256        O  0.98921675  0.37490773  0.46921446    -0.59600
H257        H  0.97769270  0.45237002  0.46770933     0.17300
O258        O  0.92413061  0.45264954  0.47380275    -0.59700
H259        H  0.90353181  0.45566282  0.43961925     0.44300
H260        H  0.00575777  0.36905410  0.50261242     0.44300
C261        C  0.82964660  0.48453129  0.74553830    -0.04800
C262        C  0.83180479  0.46077000  0.75070210    -0.32200
C263        C  0.83301393  0.44702330  0.71966096     0.37000
C264        C  0.83243866  0.45697430  0.68269902    -0.05100
C265        C  0.83290442  0.48086150  0.67947103    -0.32100
C266        C  0.83112911  0.49466314  0.71033381     0.36900
H267        H  0.83165107  0.45272023  0.77841822     0.17300
O268        O  0.83563226  0.42387287  0.72646929    -0.59600
H269        H  0.83281291  0.48881635  0.65150984     0.17300
O270        O  0.82929039  0.51783225  0.70437429    -0.59700
H271        H  0.80268985  0.52148065  0.68460873     0.44300
H272        H  0.81130799  0.41880452  0.71707703     0.44300
C273        C  0.03694259  0.49321389  0.24230141    -0.04800
C274        C  0.02535301  0.48273984  0.19942183    -0.32200
C275        C  0.99830439  0.49281370  0.15502724     0.37000
C276        C  0.98301118  0.51379093  0.15315977    -0.05100
C277        C  0.99683358  0.52523469  0.19575681    -0.32100
C278        C  0.02391132  0.51521257  0.24018083     0.36900
H279        H  0.03502517  0.46592532  0.20002052     0.17300
O280        O  0.98515615  0.48131129  0.11364180    -0.59600
H281        H  0.98520118  0.54140502  0.19458719     0.17300
O282        O  0.03603322  0.52658269  0.28127779    -0.59700
H283        H  0.05952455  0.53396240  0.29208221     0.44300
H284        H  0.96449469  0.47178231  0.10698239     0.44300
C285        C  0.89380647  0.53380786  0.98254285    -0.04800
C286        C  0.91147744  0.52270054  0.96674194    -0.32200
C287        C  0.89303371  0.51854211  0.91801476     0.37000
C288        C  0.85656314  0.52611686  0.88392030    -0.05100
C289        C  0.83991373  0.53879790  0.89941189    -0.32100
C290        C  0.85829173  0.54268370  0.94834669     0.36900
H291        H  0.93810203  0.51495936  0.99232804     0.17300
O292        O  0.90945418  0.50479378  0.90492397    -0.59600
H293        H  0.81169212  0.54439479  0.87372852     0.17300
O294        O  0.84017042  0.55355316  0.96258848    -0.59700
H295        H  0.84995691  0.56935843  0.96986166     0.44300
H296        H  0.90075409  0.48915727  0.90425029     0.44300
C297        C  0.18149560  0.33368088  0.43644393    -0.04800
C298        C  0.16664978  0.31292840  0.43781263    -0.32200
C299        C  0.18530222  0.29241132  0.44747075     0.37000
C300        C  0.21974227  0.29227966  0.45629435    -0.05100
C301        C  0.23399497  0.31295965  0.45313698    -0.32100
C302        C  0.21513222  0.33352849  0.44321363     0.36900
H303        H  0.14033249  0.31256481  0.43141316     0.17300
O304        O  0.16893096  0.27248004  0.44647647    -0.59600
H305        H  0.26045300  0.31333819  0.45995096     0.17300
O306        O  0.23101511  0.35350177  0.44339619    -0.59700
H307        H  0.22557303  0.35431390  0.41150657     0.44300
H308        H  0.16997107  0.27279076  0.47542855     0.44300
C309        C  0.73279626  0.29814262  0.47614243    -0.04800
C310        C  0.71977367  0.28652629  0.43364847    -0.32200
C311        C  0.69937474  0.26613764  0.42106037     0.37000
C312        C  0.69146377  0.25696289  0.45109867    -0.05100
C313        C  0.70563597  0.26822137  0.49427472    -0.32100
C314        C  0.72582712  0.28851693  0.50678340     0.36900
H315        H  0.72463800  0.29351762  0.40937422     0.17300
O316        O  0.68587214  0.25604684  0.37824878    -0.59600
H317        H  0.70124095  0.26127586  0.51901886     0.17300
O318        O  0.73991372  0.29821076  0.55017460    -0.59700
H319        H  0.71839750  0.30463097  0.54650114     0.44300
H320        H  0.70707351  0.24784586  0.38411920     0.44300
C321        C  0.48264276  0.17933827  0.46578665    -0.04800
C322        C  0.46375038  0.16040069  0.46623820    -0.32200
C323        C  0.43696703  0.16298588  0.47318743     0.37000
C324        C  0.42869047  0.18481237  0.48032804    -0.05100
C325        C  0.44739093  0.20371694  0.47981725    -0.32100
C326        C  0.47388362  0.20121127  0.47241955     0.36900
H327        H  0.46967818  0.14340502  0.46124951     0.17300
O328        O  0.41864279  0.14404568  0.47200634    -0.59600
H329        H  0.44158057  0.22064774  0.48535153     0.17300
O330        O  0.49043586  0.22044364  0.47107042    -0.59700
H331        H  0.47381745  0.22581505  0.43734501     0.44300
H332        H  0.39612213  0.14286812  0.43826293     0.44300
C333        C  0.47161862  0.08363933  0.14996085    -0.04800
C334        C  0.48064817  0.10669580  0.15241667    -0.32200
C335        C  0.50847607  0.11672886  0.19622910     0.37000
C336        C  0.52770856  0.10362836  0.23867387    -0.05100
C337        C  0.51936362  0.08029687  0.23593797    -0.32100
C338        C  0.49167669  0.07022341  0.19175448     0.36900
H339        H  0.46485665  0.11721539  0.12042570     0.17300
O340        O  0.51474392  0.13969373  0.19753177    -0.59600
H341        H  0.53354279  0.07006821  0.26833254     0.17300
O342        O  0.48296538  0.04766926  0.19019439    -0.59700
H343        H  0.49835534  0.03942852  0.18390860     0.44300
H344        H  0.49740499  0.14686200  0.20170778     0.44300
C345        C  0.31028047  0.13112587  0.65990796    -0.04800
C346        C  0.30287359  0.14070147  0.68948005    -0.32200
C347        C  0.30228853  0.12738114  0.72203121     0.37000
C348        C  0.30930789  0.10388681  0.72599725    -0.05100
C349        C  0.31734624  0.09411889  0.69720981    -0.32100
C350        C  0.31810380  0.10758565  0.66446916     0.36900
H351        H  0.29779543  0.15875492  0.68789175     0.17300
O352        O  0.29594327  0.13767467  0.75112995    -0.59600
H353        H  0.32256368  0.07602964  0.69965204     0.17300
O354        O  0.32476391  0.09735666  0.63567686    -0.59700
H355        H  0.35162542  0.09434174  0.65681756     0.44300
H356        H  0.26902943  0.14047019  0.73042181     0.44300
C357        C  0.34816353  0.06845336  0.87845395    -0.04800
C358        C  0.33365309  0.05448030  0.89598164    -0.32200
C359        C  0.35177621  0.05223858  0.94532828     0.37000
C360        C  0.38518968  0.06392858  0.97828759    -0.05100
C361        C  0.40085650  0.07675207  0.96095604    -0.32100
C362        C  0.38249385  0.07931309  0.91160197     0.36900
H363        H  0.30714285  0.04619062  0.87119328     0.17300
O364        O  0.33544530  0.03966964  0.96083022    -0.59600
H365        H  0.42575747  0.08653769  0.98542586     0.17300
O366        O  0.39675624  0.09421006  0.89647521    -0.59700
H367        H  0.38579838  0.10916269  0.89372278     0.44300
H368        H  0.34865409  0.02495748  0.97169028     0.44300
C369        C  0.43945861  0.91055128  0.36962120    -0.04800
C370        C  0.43454967  0.93270776  0.37922510    -0.32200
C371        C  0.41158179  0.93685250  0.39201255     0.37000
C372        C  0.39268522  0.91865835  0.39498008    -0.05100
C373        C  0.39670332  0.89659406  0.38375539    -0.32100
C374        C  0.41985370  0.89245124  0.37129111     0.36900
H375        H  0.44909174  0.94692008  0.37770844     0.17300
O376        O  0.40677833  0.95885371  0.39969298    -0.59600
H377        H  0.38237294  0.88228825  0.38534409     0.17300
O378        O  0.42185178  0.87081503  0.35881102    -0.59700
H379        H  0.43628364  0.86202223  0.38925509     0.44300
H380        H  0.43022704  0.96321980  0.43088161     0.44300
C381        C  0.42472226  0.04731870  0.81483975    -0.04800
C382        C  0.42288356  0.07118384  0.81379771    -0.32200
C383        C  0.39376104  0.08220756  0.80893165     0.37000
C384        C  0.36650242  0.06924019  0.80609784    -0.05100
C385        C  0.36899954  0.04541653  0.80848269    -0.32100
C386        C  0.39761884  0.03441023  0.81232803     0.36900
H387        H  0.44406780  0.08122069  0.81651561     0.17300
O388        O  0.39300729  0.10553724  0.80931869    -0.59600
H389        H  0.34830748  0.03532296  0.80681297     0.17300
O390        O  0.40010233  0.01115073  0.81623405    -0.59700
H391        H  0.37714844  0.00523652  0.78624490     0.44300
H392        H  0.38955446  0.11064070  0.77988092     0.44300
C393        C  0.42003736  0.01604144  0.74018049    -0.04800
C394        C  0.40961102  0.99374561  0.74187577    -0.32200
C395        C  0.38414892  0.98160584  0.69970400     0.37000
C396        C  0.36950267  0.99157599  0.65481338    -0.05100
C397        C  0.37895981  0.01424917  0.65318463    -0.32100
C398        C  0.40414811  0.02643058  0.69549300     0.36900
H399        H  0.42295859  0.98520987  0.77613769     0.17300
O400        O  0.37696425  0.95925899  0.70306888    -0.59600
H401        H  0.36804852  0.02220254  0.61903150     0.17300
O402        O  0.41454693  0.04802798  0.69290801    -0.59700
H403        H  0.43479441  0.04596698  0.69048047     0.44300
H404        H  0.35868379  0.95971509  0.70943000     0.44300
C405        C  0.52589566  0.03710460  0.08061752    -0.04800
C406        C  0.52192252  0.06087067  0.07719512    -0.32200
C407        C  0.49260579  0.07111211  0.07293136     0.37000
C408        C  0.46618633  0.05748740  0.07054679    -0.05100
C409        C  0.46975413  0.03376682  0.07334792    -0.32100
C410        C  0.49934342  0.02349360  0.07836056     0.36900
H411        H  0.54206985  0.07149423  0.07866269     0.17300
O412        O  0.48933802  0.09434960  0.06986835    -0.59600
H413        H  0.44953376  0.02324347  0.07192046     0.17300
O414        O  0.50188085  0.00022226  0.08049879    -0.59700
H415        H  0.48152851  0.99477166  0.04789194     0.44300
H416        H  0.51041205  0.10011946  0.10174853     0.44300
C417        C  0.58042245  0.00009124  0.15497692    -0.04800
C418        C  0.57958555  0.97642710  0.14971904    -0.32200
C419        C  0.57672552  0.96175462  0.17874427     0.37000
C420        C  0.57463053  0.97065944  0.21394353    -0.05100
C421        C  0.57478210  0.99441030  0.21875599    -0.32100
C422        C  0.57785192  0.00915658  0.18960093     0.36900
H423        H  0.58081218  0.96926215  0.12250030     0.17300
O424        O  0.57419062  0.93874656  0.17085039    -0.59600
H425        H  0.57339493  0.00150611  0.24586675     0.17300
O426        O  0.58004801  0.03222040  0.19661283    -0.59700
H427        H  0.55466835  0.03699627  0.18281847     0.44300
H428        H  0.59937151  0.93396401  0.18368261     0.44300
C429        C  0.54307480  0.03930401  0.00735386    -0.04800
C430        C  0.55780746  0.05257806  0.98922728    -0.32200
C431        C  0.53964788  0.05411808  0.93968522     0.37000
C432        C  0.50563341  0.04288240  0.90739296    -0.05100
C433        C  0.48944822  0.03135626  0.92537429    -0.32100
C434        C  0.50809623  0.02908901  0.97470797     0.36900
H435        H  0.58479973  0.06037311  0.01365860     0.17300
O436        O  0.55603281  0.06578686  0.92318150    -0.59600
H437        H  0.46411974  0.02183771  0.90148981     0.17300
O438        O  0.49366355  0.01459272  0.99014084    -0.59700
H439        H  0.50443612  0.99945524  0.99319266     0.44300
H440        H  0.57732267  0.05639936  0.93242635     0.44300
C441        C  0.15056265  0.80297753  0.40372533    -0.04800
C442        C  0.14949530  0.81528695  0.36861214    -0.32200
C443        C  0.16955827  0.83551467  0.38002468     0.37000
C444        C  0.19225899  0.84349883  0.42771849    -0.05100
C445        C  0.19194071  0.83178647  0.46246325    -0.32100
C446        C  0.17128036  0.81163661  0.45073957     0.36900
H447        H  0.13299069  0.80916614  0.33202250     0.17300
O448        O  0.16683571  0.84726448  0.34412941    -0.59600
H449        H  0.20900507  0.83766065  0.49923216     0.17300
O450        O  0.17295091  0.80000228  0.48597888    -0.59700
H451        H  0.19402685  0.78948731  0.50015573     0.44300
H452        H  0.14846101  0.85932385  0.33416715     0.44300
C453        C  0.69400630  0.76597510  0.42418609    -0.04800
C454        C  0.68505877  0.77889112  0.38445913    -0.32200
C455        C  0.66291682  0.79821654  0.36889480     0.37000
C456        C  0.64840339  0.80503012  0.39249528    -0.05100
C457        C  0.65540713  0.79147902  0.43035918    -0.32100
C458        C  0.67784533  0.77215701  0.44619367     0.36900
H459        H  0.69528513  0.77425161  0.36495023     0.17300
O460        O  0.65465339  0.80980954  0.32941967    -0.59600
H461        H  0.64438761  0.79621753  0.44893091     0.17300
O462        O  0.68479120  0.76013769  0.48443178    -0.59700
H463        H  0.66324054  0.74981872  0.47062025     0.44300
H464        H  0.67788112  0.81757790  0.34014495     0.44300
C465        C  0.89371308  0.68797377  0.39798732    -0.04800
C466        C  0.90684013  0.66849116  0.39013738    -0.32200
C467        C  0.93180419  0.67032094  0.37965893     0.37000
C468        C  0.94420712  0.69194512  0.37695722    -0.05100
C469        C  0.93026501  0.71136609  0.38344064    -0.32100
C470        C  0.90548807  0.70958961  0.39396822     0.36900
H471        H  0.89804956  0.65171521  0.39263373     0.17300
O472        O  0.94457545  0.65082253  0.37352885    -0.59600
H473        H  0.93888277  0.72818434  0.38086317     0.17300
O474        O  0.89409018  0.72922212  0.40178766    -0.59700
H475        H  0.91315378  0.73268681  0.43625049     0.44300
H476        H  0.96747070  0.64707713  0.40576502     0.44300
C477        C  0.02963194  0.56995722  0.08341297    -0.04800
C478        C  0.00265684  0.58107062  0.08326634    -0.32200
C479        C  0.97444285  0.56855133  0.07868859     0.37000
C480        C  0.97327212  0.54469851  0.07483481    -0.05100
C481        C  0.00054843  0.53356170  0.07600087    -0.32100
C482        C  0.02846533  0.54600760  0.07999328     0.36900
H483        H  0.00309027  0.59943242  0.08574742     0.17300
O484        O  0.94859840  0.57963434  0.07928491    -0.59600
H485        H  0.00001670  0.51519826  0.07355413     0.17300
O486        O  0.05475738  0.53460180  0.08083626    -0.59700
H487        H  0.07577772  0.53283342  0.11530444     0.44300
H488        H  0.92785032  0.58254597  0.04511367     0.44300
C489        C  0.07799277  0.61117054  0.15112950    -0.04800
C490        C  0.07458069  0.63469026  0.14219585    -0.32200
C491        C  0.07148322  0.64964345  0.17006820     0.37000
C492        C  0.07122665  0.64114093  0.20733862    -0.05100
C493        C  0.07357757  0.61750799  0.21554772    -0.32100
C494        C  0.07724263  0.60250894  0.18788383     0.36900
H495        H  0.07459519  0.64154739  0.11351078     0.17300
O496        O  0.06729628  0.67246333  0.15940723    -0.59600
H497        H  0.07366567  0.61073805  0.24435057     0.17300
O498        O  0.08201481  0.57970044  0.19857416    -0.59700
H499        H  0.05754118  0.57385665  0.18732155     0.44300
H500        H  0.09209945  0.67807941  0.17155797     0.44300
C501        C  0.92423736  0.55623215  0.81548583    -0.04800
C502        C  0.89265987  0.56568972  0.80637688    -0.32200
C503        C  0.86641534  0.55177691  0.80350759     0.37000
C504        C  0.87128046  0.52802043  0.80915356    -0.05100
C505        C  0.90262621  0.51847789  0.81761643    -0.32100
C506        C  0.92928179  0.53247454  0.82143729     0.36900
H507        H  0.88871520  0.58391349  0.80233932     0.17300
O508        O  0.83597897  0.56152616  0.79522218    -0.59600
H509        H  0.90671946  0.50025110  0.82227316     0.17300
O510        O  0.96033554  0.52286758  0.83125808    -0.59700
H511        H  0.95330732  0.51817937  0.79968642     0.44300
H512        H  0.81598310  0.55947494  0.76044415     0.44300
C513        C  0.91140571  0.59132011  0.73905967    -0.04800
C514        C  0.89834396  0.58071726  0.69588900    -0.32200
C515        C  0.87213841  0.59144127  0.65181135     0.37000
C516        C  0.85928419  0.61339314  0.65056010    -0.05100
C517        C  0.86978809  0.62290945  0.69374805    -0.32100
C518        C  0.89593462  0.61213106  0.73776977     0.36900
H519        H  0.91015929  0.56474998  0.69642569     0.17300
O520        O  0.86074758  0.58080742  0.61030684    -0.59600
H521        H  0.86009925  0.63958772  0.69391808     0.17300
O522        O  0.90811572  0.62281803  0.77959284    -0.59700
H523        H  0.92800790  0.63330509  0.78672629     0.44300
H524        H  0.84012232  0.57070475  0.60199777     0.44300
C525        C  0.00300174  0.56724381  0.90711548    -0.04800
C526        C  0.98749404  0.57853637  0.92566347    -0.32200
C527        C  0.00730597  0.58122176  0.97520063     0.37000
C528        C  0.04299613  0.57204702  0.00705667    -0.05100
C529        C  0.05707890  0.55899341  0.98851470    -0.32100
C530        C  0.03742844  0.55669668  0.93885135     0.36900
H531        H  0.96153673  0.58733902  0.90166138     0.17300
O532        O  0.99369993  0.59547512  0.99149715    -0.59600
H533        H  0.08443711  0.55183885  0.01250473     0.17300
O534        O  0.05275846  0.54503881  0.92152597    -0.59700
H535        H  0.07107689  0.55565369  0.92456674     0.44300
H536        H  0.97143154  0.58768317  0.98404854     0.44300
loop_ 
_geom_bond_atom_site_label_1 
_geom_bond_atom_site_label_2 
_geom_bond_distance 
_geom_bond_site_symmetry_2 
_ccdc_geom_bond_type 
N1            C5   1.356       .  A
N1            C2   1.355       .  A
N1          C501   1.438       .  S
C2            C3   1.381       .  A
C2          C513   1.478       .  S
C3            C4   1.375   1_655  A
C3            H6   1.082       .  S
C4            C5   1.383   1_455  A
C4            H7   1.082       .  S
C5          C525   1.478   1_655  S
N8           C12   1.356       .  A
N8            C9   1.357       .  A
N8          C477   1.442       .  S
C9           C10   1.384       .  A
C9          C489   1.479       .  S
C10          C11   1.375       .  A
C10          H13   1.082       .  S
C11          C12   1.382       .  A
C11          H14   1.082       .  S
C12         C528   1.484       .  S
N15          C19   1.341       .  A
N15          N16   1.318       .  A
N15         Cu23   2.052       .  S
N16          C17   1.348       .  A
N16         Cu22   2.082       .  S
C17          C18   1.392       .  A
C17          H20   1.082       .  S
C18          C19   1.386       .  A
C18         C465   1.488       .  S
C19          H21   1.080       .  S
Cu22         N25   2.083       .  S
Cu23         N33   2.052       .  S
Cu24         N26   2.101       .  S
Cu24         N32   2.100       .  S
N25          C29   1.343       .  A
N25          N26   1.324       .  A
N26          C27   1.351       .  A
C27          C28   1.392       .  A
C27          H30   1.082       .  S
C28          C29   1.385       .  A
C28         C516   1.491       .  S
C29          H31   1.081       .  S
N32          C36   1.350       .  A
N32          N33   1.320       .  A
N33          C34   1.338       .  A
C34          C35   1.386       .  A
C34          H37   1.080       .  S
C35          C36   1.398       .  A
C35         C453   1.498       .  S
C36          H38   1.079       .  S
N39          C43   1.342   1_455  A
N39          N40   1.322       .  A
N39         Cu47   2.077       .  S
N40          C41   1.346   1_455  A
N40         Cu46   2.070       .  S
C41          C42   1.386       .  A
C41          H44   1.081       .  S
C42          C43   1.387       .  A
C42         C468   1.485       .  S
C43          H45   1.082   1_655  S
Cu46         N49   2.070       .  S
Cu47         N57   2.076       .  S
Cu48         N50   2.079       .  S
Cu48         N56   2.078       .  S
N49          C53   1.346       .  A
N49          N50   1.322       .  A
N50          C51   1.344       .  A
C51          C52   1.385       .  A
C51          H54   1.082       .  S
C52          C53   1.382       .  A
C52         C492   1.478       .  S
C53          H55   1.082       .  S
N56          C60   1.344       .  A
N56          N57   1.322       .  A
N57          C58   1.347       .  A
C58          C59   1.384       .  A
C58          H61   1.082       .  S
C59          C60   1.385       .  A
C59         C441   1.479       .  S
C60          H62   1.082       .  S
N63          C67   1.358       .  A
N63          C64   1.358       .  A
N63         C405   1.443       .  S
C64          C65   1.382       .  A
C64         C417   1.478       .  S
C65          C66   1.374       .  A
C65          H68   1.082       .  S
C66          C67   1.383       .  A
C66          H69   1.082       .  S
C67         C429   1.486       .  S
N70          C74   1.357       .  A
N70          C71   1.355       .  A
N70         C381   1.439       .  S
C71          C72   1.380       .  A
C71         C393   1.474       .  S
C72          C73   1.375       .  A
C72          H75   1.082       .  S
C73          C74   1.385       .  A
C73          H76   1.082       .  S
C74         C432   1.482       .  S
N77          C81   1.344       .  A
N77          N78   1.323       .  A
N77         Cu85   2.075       .  S
N78          C79   1.343       .  A
N78         Cu84   2.071       .  S
C79          C80   1.383       .  A
C79          H82   1.082       .  S
C80          C81   1.385       .  A
C80         C369   1.479       .  S
C81          H83   1.081       .  S
Cu84         N87   2.070       .  S
Cu85         N95   2.074       .  S
Cu86         N88   2.073       .  S
Cu86         N94   2.073       .  S
N87          C91   1.348       .  A
N87          N88   1.321       .  A
N88          C89   1.342       .  A
C89          C90   1.385       .  A
C89          H92   1.081       .  S
C90          C91   1.385       .  A
C90         C420   1.479       .  S
C91          H93   1.082       .  S
N94          C98   1.343       .  A
N94          N95   1.320       .  A
N95          C96   1.347       .  A
C96          C97   1.389       .  A
C96          H99   1.082       .  S
C97          C98   1.388       .  A
C97         C456   1.488       .  S
C98         H100   1.080       .  S
N101        C105   1.341       .  A
N101        N102   1.318       .  A
N101       Cu109   2.057       .  S
N102        C103   1.344       .  A
N102       Cu108   2.068       .  S
C103        C104   1.389       .  A
C103        H106   1.081       .  S
C104        C105   1.386       .  A
C104        C372   1.484       .  S
C105        H107   1.081       .  S
Cu108       N111   2.068       .  S
Cu109       N119   2.058       .  S
Cu110       N112   2.095       .  S
Cu110       N118   2.094       .  S
N111        C115   1.342       .  A
N111        N112   1.324       .  A
N112        C113   1.349       .  A
C113        C114   1.389       .  A
C113        H116   1.081       .  S
C114        C115   1.381       .  A
C114        C396   1.483       .  S
C115        H117   1.082       .  S
N118        C122   1.351       .  A
N118        N119   1.322       .  A
N119        C120   1.339       .  A
C120        C121   1.382       .  A
C120        H123   1.081       .  S
C121        C122   1.391       .  A
C121        C444   1.484       .  S
C122        H124   1.082       .  S
N125        C129   1.359       .  A
N125        C126   1.358       .  A
N125        C384   1.440       .  S
C126        C127   1.383       .  A
C126        C348   1.483       .  S
C127        C128   1.373       .  A
C127        H130   1.082       .  S
C128        C129   1.383       .  A
C128        H131   1.082       .  S
C129        C357   1.488       .  S
N132        C136   1.355       .  A
N132        C133   1.352       .  A
N132        C408   1.435       .  S
C133        C134   1.380       .  A
C133        C333   1.473       .  S
C134        C135   1.378       .  A
C134        H137   1.082       .  S
C135        C136   1.385       .  A
C135        H138   1.082       .  S
C136        C360   1.484   1_554  S
N139        C143   1.342       .  A
N139        N140   1.318       .  A
N139       Cu147   2.065       .  S
N140        C141   1.346       .  A
N140       Cu146   2.070       .  S
C141        C142   1.392       .  A
C141        H144   1.081       .  S
C142        C143   1.389       .  A
C142        C321   1.492       .  S
C143        H145   1.079       .  S
Cu146       N149   2.069       .  S
Cu147       N157   2.066       .  S
Cu148       N150   2.098       .  S
Cu148       N156   2.097       .  S
N149        C153   1.343       .  A
N149        N150   1.325       .  A
N150        C151   1.348       .  A
C151        C152   1.388       .  A
C151        H154   1.082       .  S
C152        C153   1.380       .  A
C152        C336   1.479       .  S
C153        H155   1.082       .  S
N156        C160   1.352       .  A
N156        N157   1.321       .  A
N157        C158   1.340       .  A
C158        C159   1.385       .  A
C158        H161   1.081       .  S
C159        C160   1.395       .  A
C159        C312   1.494       .  S
C160        H162   1.081       .  S
N163        C167   1.346       .  A
N163        N164   1.323       .  A
N163       Cu171   2.087       .  S
N164        C165   1.344       .  A
N164       Cu170   2.066       .  S
C165        C166   1.383       .  A
C165        H168   1.081       .  S
C166        C167   1.388       .  A
C166        C324   1.483       .  S
C167        H169   1.082       .  S
Cu170       N173   2.066       .  S
Cu171       N181   2.087       .  S
Cu172       N174   2.085       .  S
Cu172       N180   2.085       .  S
N173        C177   1.347       .  A
N173        N174   1.320       .  A
N174        C175   1.344       .  A
C175        C176   1.391       .  A
C175        H178   1.082       .  S
C176        C177   1.387       .  A
C176        C345   1.489       .  S
C177        H179   1.081       .  S
N180        C184   1.345       .  A
N180        N181   1.322       .  A
N181        C182   1.349       .  A
C182        C183   1.389       .  A
C182        H185   1.082       .  S
C183        C184   1.388       .  A
C183        C300   1.490       .  S
C184        H186   1.081       .  S
N187        C191   1.355       .  A
N187        C188   1.350       .  A
N187        C480   1.435       .  S
C188        C189   1.380       .  A
C188        C276   1.472       .  S
C189        C190   1.377       .  A
C189        H192   1.082       .  S
C190        C191   1.385       .  A
C190        H193   1.082       .  S
C191        C285   1.480   1_554  S
N194        C198   1.355       .  A
N194        C195   1.356       .  A
N194        C504   1.439       .  S
C195        C196   1.385       .  A
C195        C261   1.481       .  S
C196        C197   1.374       .  A
C196        H199   1.082       .  S
C197        C198   1.381       .  A
C197        H200   1.082       .  S
C198        C288   1.480       .  S
N201        C205   1.345       .  A
N201        N202   1.323       .  A
N201       Cu209   2.089       .  S
N202        C203   1.343       .  A
N202       Cu208   2.062       .  S
C203        C204   1.383       .  A
C203        H206   1.081       .  S
C204        C205   1.389       .  A
C204        C249   1.483       .  S
C205        H207   1.082       .  S
Cu208       N211   2.061       .  S
Cu209       N219   2.088       .  S
Cu210       N212   2.078       .  S
Cu210       N218   2.078       .  S
N211        C215   1.346       .  A
N211        N212   1.321       .  A
N212        C213   1.342       .  A
C213        C214   1.387       .  A
C213        H216   1.081       .  S
C214        C215   1.384       .  A
C214        C264   1.480       .  S
C215        H217   1.082       .  S
N218        C222   1.344       .  A
N218        N219   1.321       .  A
N219        C220   1.349       .  A
C220        C221   1.391       .  A
C220        H223   1.082       .  S
C221        C222   1.389       .  A
C221        C309   1.494       .  S
C222        H224   1.080       .  S
N225        C229   1.343       .  A
N225        N226   1.318       .  A
N225       Cu233   2.070       .  S
N226        C227   1.345       .  A
N226       Cu232   2.068       .  S
C227        C228   1.389       .  A
C227        H230   1.082       .  S
C228        C229   1.390       .  A
C228        C252   1.491   1_455  S
C229        H231   1.079       .  S
Cu232       N235   2.068       .  S
Cu233       N243   2.071       .  S
Cu234       N236   2.094       .  S
Cu234       N242   2.094       .  S
N235        C239   1.342       .  A
N235        N236   1.323       .  A
N236        C237   1.349       .  A
C237        C238   1.390       .  A
C237        H240   1.082       .  S
C238        C239   1.383       .  A
C238        C273   1.484       .  S
C239        H241   1.082       .  S
N242        C246   1.350       .  A
N242        N243   1.323       .  A
N243        C244   1.343       .  A
C244        C245   1.383       .  A
C244        H247   1.082       .  S
C245        C246   1.390       .  A
C245        C297   1.486       .  S
C246        H248   1.081       .  S
C249        C250   1.401       .  A
C249        C254   1.410       .  A
C250        C251   1.398       .  A
C250        H255   1.083       .  S
C251        C252   1.414       .  A
C251        O256   1.370       .  S
C252        C253   1.407       .  A
C253        C254   1.402       .  A
C253        H257   1.083       .  S
C254        O258   1.371       .  S
O256        H260   0.992   1_655  S
O258        H259   0.991       .  S
C261        C262   1.403       .  A
C261        C266   1.408       .  A
C262        C263   1.395       .  A
C262        H267   1.084       .  S
C263        C264   1.407       .  A
C263        O268   1.373       .  S
C264        C265   1.408       .  A
C265        C266   1.406       .  A
C265        H269   1.083       .  S
C266        O270   1.371       .  S
O268        H272   0.992       .  S
O270        H271   0.992       .  S
C273        C274   1.405       .  A
C273        C278   1.413       .  A
C274        C275   1.401   1_455  A
C274        H279   1.083       .  S
C275        C276   1.407       .  A
C275        O280   1.372       .  S
C276        C277   1.398       .  A
C277        C278   1.400   1_655  A
C277        H281   1.084       .  S
C278        O282   1.371       .  S
O280        H284   0.992       .  S
O282        H283   0.992       .  S
C285        C286   1.402       .  A
C285        C290   1.409       .  A
C286        C287   1.397       .  A
C286        H291   1.081       .  S
C287        C288   1.410       .  A
C287        O292   1.371       .  S
C288        C289   1.403       .  A
C289        C290   1.401       .  A
C289        H293   1.084       .  S
C290        O294   1.371       .  S
O292        H296   0.992       .  S
O294        H295   0.992       .  S
C297        C298   1.404       .  A
C297        C302   1.409       .  A
C298        C299   1.401       .  A
C298        H303   1.083       .  S
C299        C300   1.411       .  A
C299        O304   1.372       .  S
C300        C301   1.408       .  A
C301        C302   1.407       .  A
C301        H305   1.083       .  S
C302        O306   1.371       .  S
O304        H308   0.992       .  S
O306        H307   0.991       .  S
C309        C310   1.408       .  A
C309        C314   1.411       .  A
C310        C311   1.408       .  A
C310        H315   1.083       .  S
C311        C312   1.412       .  A
C311        O316   1.371       .  S
C312        C313   1.406       .  A
C313        C314   1.399       .  A
C313        H317   1.082       .  S
C314        O318   1.372       .  S
O316        H320   0.992       .  S
O318        H319   0.992       .  S
C321        C322   1.407       .  A
C321        C326   1.415       .  A
C322        C323   1.401       .  A
C322        H327   1.082       .  S
C323        C324   1.410       .  A
C323        O328   1.371       .  S
C324        C325   1.401       .  A
C325        C326   1.399       .  A
C325        H329   1.083       .  S
C326        O330   1.370       .  S
O328        H332   0.992       .  S
O330        H331   0.991       .  S
C333        C334   1.400       .  A
C333        C338   1.404       .  A
C334        C335   1.397       .  A
C334        H339   1.084       .  S
C335        C336   1.409       .  A
C335        O340   1.371       .  S
C336        C337   1.407       .  A
C337        C338   1.404       .  A
C337        H341   1.084       .  S
C338        O342   1.371       .  S
O340        H344   0.992       .  S
O342        H343   0.992       .  S
C345        C346   1.403       .  A
C345        C350   1.416       .  A
C346        C347   1.395       .  A
C346        H351   1.083       .  S
C347        C348   1.408       .  A
C347        O352   1.373       .  S
C348        C349   1.403       .  A
C349        C350   1.409       .  A
C349        H353   1.083       .  S
C350        O354   1.371       .  S
O352        H356   0.992       .  S
O354        H355   0.992       .  S
C357        C358   1.405       .  A
C357        C362   1.411       .  A
C358        C359   1.401       .  A
C358        H363   1.084       .  S
C359        C360   1.408       .  A
C359        O364   1.371       .  S
C360        C361   1.403       .  A
C361        C362   1.401       .  A
C361        H365   1.081       .  S
C362        O366   1.371       .  S
O364        H368   0.992       .  S
O366        H367   0.992       .  S
C369        C370   1.404       .  A
C369        C374   1.408       .  A
C370        C371   1.400       .  A
C370        H375   1.083       .  S
C371        C372   1.410       .  A
C371        O376   1.371       .  S
C372        C373   1.406       .  A
C373        C374   1.399       .  A
C373        H377   1.082       .  S
C374        O378   1.372       .  S
O376        H380   0.992       .  S
O378        H379   0.992       .  S
C381        C382   1.405       .  A
C381        C386   1.404       .  A
C382        C383   1.404       .  A
C382        H387   1.083       .  S
C383        C384   1.406       .  A
C383        O388   1.372       .  S
C384        C385   1.403       .  A
C385        C386   1.400       .  A
C385        H389   1.083       .  S
C386        O390   1.371       .  S
O388        H392   0.992       .  S
O390        H391   0.992       .  S
C393        C394   1.402   1_545  A
C393        C398   1.403       .  A
C394        C395   1.400       .  A
C394        H399   1.084       .  S
C395        C396   1.409       .  A
C395        O400   1.371       .  S
C396        C397   1.407   1_565  A
C397        C398   1.402       .  A
C397        H401   1.083       .  S
C398        O402   1.372       .  S
O400        H404   0.992       .  S
O402        H403   0.992       .  S
C405        C406   1.405       .  A
C405        C410   1.409       .  A
C406        C407   1.401       .  A
C406        H411   1.083       .  S
C407        C408   1.403       .  A
C407        O412   1.371       .  S
C408        C409   1.401       .  A
C409        C410   1.401       .  A
C409        H413   1.083       .  S
C410        O414   1.371       .  S
O412        H416   0.992       .  S
O414        H415   0.991   1_545  S
C417        C418   1.402   1_545  A
C417        C422   1.406       .  A
C418        C419   1.395       .  A
C418        H423   1.084       .  S
C419        C420   1.408       .  A
C419        O424   1.372       .  S
C420        C421   1.407       .  A
C421        C422   1.407   1_565  A
C421        H425   1.083   1_565  S
C422        O426   1.372       .  S
O424        H428   0.992       .  S
O426        H427   0.991       .  S
C429        C430   1.405   1_554  A
C429        C434   1.411   1_554  A
C430        C431   1.403       .  A
C430        H435   1.084   1_556  S
C431        C432   1.408       .  A
C431        O436   1.373       .  S
C432        C433   1.401       .  A
C433        C434   1.397       .  A
C433        H437   1.081       .  S
C434        O438   1.369       .  S
O436        H440   0.992       .  S
O438        H439   0.995   1_545  S
C441        C442   1.401       .  A
C441        C446   1.410       .  A
C442        C443   1.397       .  A
C442        H447   1.084       .  S
C443        C444   1.412       .  A
C443        O448   1.371       .  S
C444        C445   1.405       .  A
C445        C446   1.405       .  A
C445        H449   1.083       .  S
C446        O450   1.371       .  S
O448        H452   0.992       .  S
O450        H451   0.992       .  S
C453        C454   1.409       .  A
C453        C458   1.413       .  A
C454        C455   1.399       .  A
C454        H459   1.081       .  S
C455        C456   1.409       .  A
C455        O460   1.372       .  S
C456        C457   1.406       .  A
C457        C458   1.405       .  A
C457        H461   1.083       .  S
C458        O462   1.369       .  S
O460        H464   0.992       .  S
O462        H463   0.992       .  S
C465        C466   1.406       .  A
C465        C470   1.413       .  A
C466        C467   1.404       .  A
C466        H471   1.083       .  S
C467        C468   1.411       .  A
C467        O472   1.371       .  S
C468        C469   1.402       .  A
C469        C470   1.396       .  A
C469        H473   1.083       .  S
C470        O474   1.370       .  S
O472        H476   0.992       .  S
O474        H475   0.992       .  S
C477        C478   1.403       .  A
C477        C482   1.411       .  A
C478        C479   1.401   1_455  A
C478        H483   1.082       .  S
C479        C480   1.407       .  A
C479        O484   1.371       .  S
C480        C481   1.397   1_655  A
C481        C482   1.397       .  A
C481        H485   1.082       .  S
C482        O486   1.371       .  S
O484        H488   0.992       .  S
O486        H487   0.992       .  S
C489        C490   1.403       .  A
C489        C494   1.406       .  A
C490        C491   1.396       .  A
C490        H495   1.084       .  S
C491        C492   1.406       .  A
C491        O496   1.372       .  S
C492        C493   1.407       .  A
C493        C494   1.406       .  A
C493        H497   1.083       .  S
C494        O498   1.372       .  S
O496        H500   0.992       .  S
O498        H499   0.992       .  S
C501        C502   1.399       .  A
C501        C506   1.410       .  A
C502        C503   1.398       .  A
C502        H507   1.082       .  S
C503        C504   1.409       .  A
C503        O508   1.371       .  S
C504        C505   1.401       .  A
C505        C506   1.401       .  A
C505        H509   1.083       .  S
C506        O510   1.371       .  S
O508        H512   0.992       .  S
O510        H511   0.992       .  S
C513        C514   1.399       .  A
C513        C518   1.408       .  A
C514        C515   1.403       .  A
C514        H519   1.084       .  S
C515        C516   1.414       .  A
C515        O520   1.371       .  S
C516        C517   1.406       .  A
C517        C518   1.403       .  A
C517        H521   1.083       .  S
C518        O522   1.372       .  S
O520        H524   0.992       .  S
O522        H523   0.992       .  S
C525        C526   1.401   1_455  A
C525        C530   1.406       .  A
C526        C527   1.400   1_655  A
C526        H531   1.084       .  S
C527        C528   1.411   1_556  A
C527        O532   1.372   1_455  S
C528        C529   1.404   1_554  A
C529        C530   1.402       .  A
C529        H533   1.084   1_556  S
C530        O534   1.372       .  S
O532        H536   0.992       .  S
O534        H535   0.992       .  S
