geometry optimzed in LAMMPS
_audit_creation_date              2020-12-01 
_audit_creation_method            'lammps2cif' 
_symmetry_space_group_name_H-M    'P1' 
_symmetry_Int_Tables_number       1 
_symmetry_cell_setting            triclinic 
loop_ 
_symmetry_equiv_pos_as_xyz 
  x,y,z 
_cell_length_a                    34.87469438 
_cell_length_b                    27.718529209653006 
_cell_length_c                    27.698097007034413 
_cell_angle_alpha                 88.97198636337016 
_cell_angle_beta                  90.06808794466758 
_cell_angle_gamma                 89.8783959382602 
loop_ 
_atom_site_label 
_atom_site_type_symbol 
_atom_site_fract_x 
_atom_site_fract_y 
_atom_site_fract_z 
_atom_site_charge 
O1          O  0.18855384  0.27872045  0.02767082    -0.88400
C2          C  0.08155728  0.30415508  0.07643459     0.87600
Mg3        Mg  0.20635711  0.29578023  0.95572043     1.58100
O4          O  0.10372563  0.18303211  0.05604827    -0.88200
O5          O  0.18764807  0.21714845  0.07839742    -0.75500
C6          C  0.06697942  0.20929068  0.81836792     0.92600
O7          O  0.12984257  0.36170581  0.99638165    -0.75300
O8          O  0.09403511  0.24010363  0.81635379    -0.82800
Mg9        Mg  0.15986452  0.33451498  0.06586806     1.58000
C10         C  0.03188225  0.09482951  0.98537695     0.92600
O11         O  0.19109268  0.31339082  0.13671893    -0.81100
H12         H  0.13797625  0.12600129  0.06744838    -0.06400
C13         C  0.04721140  0.25302605  0.94596261     0.87500
O14         O  0.19842906  0.21698142  0.93392409    -0.75600
O15         O  0.11398848  0.28628805  0.08014356    -0.88400
O16         O  0.03280428  0.12355786  0.02065748    -0.81200
C17         C  0.03741245  0.20268429  0.15420502     0.92700
C18         C  0.18524285  0.28794907  0.17481427     0.92500
Mg19       Mg  0.09195565  0.16212341  0.92775032     1.58000
O20         O  0.06080489  0.18336572  0.85618774    -0.81100
O21         O  0.12205486  0.13560503  0.99743800    -0.75300
O22         O  0.07180373  0.21763436  0.15906404    -0.81200
O23         O  0.20592990  0.38915520  0.05056235    -0.82900
O24         O  0.18021563  0.28044248  0.83462554    -0.81200
C25         C  0.12145700  0.14722725  0.04170807     0.87000
O26         O  0.13796299  0.21071866  0.91318988    -0.88300
O27         O  0.06339026  0.21820692  0.96579683    -0.88500
O28         O  0.06431029  0.27986181  0.91521260    -0.75500
Mg29       Mg  0.12867196  0.21948954  0.11557093     1.58000
O30         O  0.02455668  0.18857890  0.11387590    -0.82900
H31         H  0.23374445  0.23501136  0.03716463    -0.06600
O32         O  0.14819749  0.31435492  0.93781093    -0.88200
H33         H  0.11412945  0.37154219  0.92631677    -0.06400
H34         H  0.17508556  0.15611644  0.90697528    -0.06600
C35         C  0.13051428  0.35019724  0.95209733     0.86900
C36         C  0.20468774  0.24380160  0.04741439     0.87500
C37         C  0.17054536  0.19324557  0.91685923     0.87600
H38         H  0.01807382  0.26162695  0.95601097    -0.06600
O39         O  0.05358212  0.28082381  0.05913055    -0.75600
Mg40       Mg  0.12331858  0.27786982  0.87826332     1.58000
H41         H  0.07728869  0.34133155  0.08632731    -0.06600
C42         C  0.22000468  0.40212072  0.01010061     0.92600
O43         O  0.22726076  0.31008053  0.87976412    -0.82800
C44         C  0.21446224  0.29598331  0.83939169     0.92600
O45         O  0.15806208  0.25736159  0.17760862    -0.82800
Mg46       Mg  0.04563610  0.20202909  0.03790665     1.58200
O47         O  0.21916678  0.37458462  0.97379695    -0.81200
O48         O  0.04583379  0.10655931  0.94435967    -0.82900
O49         O  0.43665593  0.78017202  0.03438950    -0.88400
C50         C  0.32954714  0.80526761  0.08319056     0.87600
Mg51       Mg  0.45435547  0.79605256  0.96228168     1.58100
O52         O  0.35195600  0.68413708  0.06250299    -0.88200
O53         O  0.43590318  0.71870246  0.08519266    -0.75500
C54         C  0.31459774  0.71088549  0.82507894     0.92600
O55         O  0.37800484  0.86300665  0.00262082    -0.75300
O56         O  0.34162759  0.74169726  0.82287874    -0.82800
Mg57       Mg  0.40813785  0.83647941  0.07217254     1.58000
C58         C  0.28008067  0.59601279  0.99028590     0.92600
O59         O  0.43934455  0.81545801  0.14347557    -0.81100
H60         H  0.38605570  0.62691530  0.07368861    -0.06400
C61         C  0.29521317  0.75454322  0.95302988     0.87500
O62         O  0.44612623  0.71725437  0.94125078    -0.75600
O63         O  0.36216231  0.78788743  0.08691264    -0.88400
O64         O  0.28111138  0.62346212  0.02668053    -0.81200
C65         C  0.28570556  0.70311235  0.16104895     0.92700
C66         C  0.43349381  0.78966633  0.18142210     0.92500
Mg67       Mg  0.33984214  0.66383089  0.93414648     1.58000
O68         O  0.30858968  0.68512893  0.86298716    -0.81100
O69         O  0.36993750  0.63672048  0.00374953    -0.75300
O70         O  0.31997781  0.71860359  0.16568780    -0.81200
O71         O  0.45433813  0.89184016  0.05537641    -0.82900
O72         O  0.42783113  0.78116950  0.84101763    -0.81200
C73         C  0.36955778  0.64828760  0.04804706     0.87000
O74         O  0.38578316  0.71197539  0.91983093    -0.88300
O75         O  0.31131224  0.71951000  0.97259394    -0.88500
O76         O  0.31227619  0.78132017  0.92218413    -0.75500
Mg77       Mg  0.37690179  0.72085260  0.12208842     1.58000
O78         O  0.27290086  0.68855185  0.12083494    -0.82900
H79         H  0.48209443  0.73698643  0.04433718    -0.06600
O80         O  0.39626925  0.81523216  0.94431551    -0.88200
H81         H  0.36224300  0.87240000  0.93254071    -0.06400
H82         H  0.42239091  0.65679345  0.91400985    -0.06600
C83         C  0.37865519  0.85121140  0.95842104     0.86900
C84         C  0.45293465  0.74550187  0.05435683     0.87500
C85         C  0.41816881  0.69401334  0.92378134     0.87600
H86         H  0.26617561  0.76334441  0.96335189    -0.06600
O87         O  0.30167526  0.78139257  0.06626564    -0.75600
Mg88       Mg  0.37115736  0.77906492  0.88484575     1.58000
H89         H  0.32495740  0.84242822  0.09292773    -0.06600
C90         C  0.46855246  0.90328605  0.01443216     0.92600
O91         O  0.47530747  0.80936511  0.88635824    -0.82800
C92         C  0.46226975  0.79590547  0.84590781     0.92600
O93         O  0.40637905  0.75892552  0.18396805    -0.82800
Mg94       Mg  0.29373939  0.70250240  0.04468221     1.58200
O95         O  0.46759448  0.87445960  0.97924500    -0.81200
O96         O  0.29375273  0.60920002  0.94965620    -0.82900
O97         O  0.43884567  0.22118601  0.46564510    -0.88400
C98         C  0.33185379  0.19577998  0.41625747     0.87600
Mg99       Mg  0.45655301  0.20453918  0.53779004     1.58100
O100        O  0.35352364  0.31680607  0.43756447    -0.88200
O101        O  0.43764413  0.28283893  0.41503689    -0.75500
C102        C  0.31610405  0.28879708  0.67466781     0.92600
O103        O  0.38064787  0.13787750  0.49669536    -0.75300
O104        O  0.34345731  0.25828852  0.67715144    -0.82800
Mg105      Mg  0.41049281  0.16517738  0.42736911     1.58000
C106        C  0.28085677  0.40389655  0.50982013     0.92600
O107        O  0.44146801  0.18654628  0.35636103    -0.81100
H108        H  0.38732054  0.37418490  0.42681332    -0.06400
C109        C  0.29715286  0.24562604  0.54656249     0.87500
O110        O  0.44803406  0.28320029  0.55951116    -0.75600
O111        O  0.36430747  0.21348623  0.41297612    -0.88400
O112        O  0.28231002  0.37669785  0.47329647    -0.81200
C113        C  0.28740487  0.29793054  0.33894068     0.92700
C114        C  0.43543833  0.21223169  0.31838819     0.92500
Mg115      Mg  0.34120243  0.33636634  0.56595699     1.58000
O116        O  0.31000239  0.31455974  0.63676810    -0.81100
O117        O  0.37120204  0.36396508  0.49663947    -0.75300
O118        O  0.32169076  0.28236813  0.33429675    -0.81200
O119        O  0.45684841  0.11023518  0.44334679    -0.82900
O120        O  0.42976842  0.21860193  0.65914256    -0.81200
C121        C  0.37091911  0.35263063  0.45227782     0.87000
O122        O  0.38756046  0.28839729  0.58036803    -0.88300
O123        O  0.31314487  0.28068520  0.52713222    -0.88500
O124        O  0.31428975  0.21885397  0.57746746    -0.75500
Mg125      Mg  0.37863021  0.28051203  0.37790441     1.58000
O126        O  0.27465373  0.31249527  0.37913965    -0.82900
H127        H  0.48391931  0.26480956  0.45611807    -0.06600
O128        O  0.39850738  0.18536800  0.55537172    -0.88200
H129        H  0.36498200  0.12784844  0.56668029    -0.06400
H130        H  0.42398672  0.34350844  0.58690543    -0.06600
C131        C  0.38119012  0.14936096  0.54098358     0.86900
C132        C  0.45484913  0.25608973  0.44591368     0.87500
C133        C  0.41991227  0.30636858  0.57682579     0.87600
H134        H  0.26815683  0.23682320  0.53610226    -0.06600
O135        O  0.30373335  0.21928870  0.43312877    -0.75600
Mg136      Mg  0.37316100  0.22112096  0.61501533     1.58000
H137        H  0.32763576  0.15866375  0.40618645    -0.06600
C138        C  0.47060165  0.09778827  0.48424081     0.92600
O139        O  0.47740050  0.19054906  0.61389848    -0.82800
C140        C  0.46418928  0.20359704  0.65442020     0.92600
O141        O  0.40817079  0.24287927  0.31581521    -0.82800
Mg142      Mg  0.29546092  0.29799952  0.45511224     1.58200
O143        O  0.46969448  0.12599891  0.52000873    -0.81200
O144        O  0.29453787  0.39068649  0.55050356    -0.82900
O145        O  0.18672673  0.72025099  0.47304781    -0.88400
C146        C  0.07985885  0.69513333  0.42370205     0.87600
Mg147      Mg  0.20412553  0.70298412  0.54520853     1.58100
O148        O  0.10167412  0.81612985  0.44467441    -0.88200
O149        O  0.18575366  0.78199850  0.42255638    -0.75500
C150        C  0.06392569  0.78914633  0.68136130     0.92600
O151        O  0.12844649  0.63698141  0.50358498    -0.75300
O152        O  0.09105262  0.75830474  0.68375959    -0.82800
Mg153      Mg  0.15851684  0.66459560  0.43434333     1.58000
C154        C  0.02972014  0.90440304  0.51563519     0.92600
O155        O  0.18982572  0.68622128  0.36352814    -0.81100
H156        H  0.13561000  0.87330805  0.43354132    -0.06400
C157        C  0.04480010  0.74591719  0.55372600     0.87500
O158        O  0.19595526  0.78173154  0.56709084    -0.75600
O159        O  0.11230622  0.71281482  0.42006504    -0.88400
O160        O  0.03066736  0.87621470  0.47984462    -0.81200
C161        C  0.03565937  0.79725352  0.34588004     0.92700
C162        C  0.18377817  0.71188315  0.32554794     0.92500
Mg163      Mg  0.08941997  0.83652131  0.57273651     1.58000
O164        O  0.05803173  0.81517445  0.64357288    -0.81100
O165        O  0.11960074  0.86351901  0.50344393    -0.75300
O166        O  0.06998137  0.78182803  0.34123096    -0.81200
O167        O  0.20500280  0.61013483  0.44989923    -0.82900
O168        O  0.17726540  0.71798978  0.66620194    -0.81200
C169        C  0.11917474  0.85197368  0.45915388     0.87000
O170        O  0.13539492  0.78784770  0.58730693    -0.88300
O171        O  0.06099309  0.78081207  0.53426134    -0.88500
O172        O  0.06183602  0.71885116  0.58445600    -0.75500
Mg173      Mg  0.12680305  0.77983397  0.38509275     1.58000
O174        O  0.02282654  0.81156466  0.38612521    -0.82900
H175        H  0.23184787  0.76388462  0.46394842    -0.06600
O176        O  0.14594688  0.68445415  0.56243571    -0.88200
H177        H  0.11232485  0.62695728  0.57343608    -0.06400
H178        H  0.17226166  0.84246446  0.59406371    -0.06600
C179        C  0.12866916  0.64848398  0.54788889     0.86900
C180        C  0.20281891  0.75520296  0.45352692     0.87500
C181        C  0.16791725  0.80536575  0.58401064     0.87600
H182        H  0.01572288  0.73744333  0.54334336    -0.06600
O183        O  0.05181741  0.71869870  0.44070736    -0.75600
Mg184      Mg  0.12067368  0.72068720  0.62195382     1.58000
H185        H  0.07559702  0.65795297  0.41388539    -0.06600
C186        C  0.21845995  0.59684023  0.49067877     0.92600
O187        O  0.22464287  0.68860543  0.62135339    -0.82800
C188        C  0.21154860  0.70242535  0.66166205     0.92600
O189        O  0.15638977  0.74234258  0.32297396    -0.82800
Mg190      Mg  0.04354319  0.79752667  0.46217333     1.58200
O191        O  0.21705368  0.62410346  0.52717064    -0.81200
O192        O  0.04334362  0.89186672  0.55657605    -0.82900
C193        C  0.99834824  0.96730882  0.46330831    -0.21400
C194        C  0.01359967  0.95353062  0.50852137    -0.09400
C195        C  0.51529421  0.98802287  0.54520396     0.29400
C196        C  0.50200072  0.03491777  0.53656416    -0.21400
C197        C  0.48676528  0.04869583  0.49134571    -0.09500
C198        C  0.98506678  0.01420840  0.45466444     0.29400
F199        F  0.97026435  0.02533974  0.41049331    -0.20000
H200        H  0.99681117  0.94177446  0.43422739     0.17800
H201        H  0.50352290  0.06044929  0.56564948     0.17800
F202        F  0.53012329  0.97691381  0.58936400    -0.20000
C203        C  0.25712697  0.48027505  0.54591601    -0.21400
C204        C  0.26386252  0.45269461  0.50467812    -0.09400
C205        C  0.25598409  0.47324942  0.45884378     0.29400
C206        C  0.24178332  0.52024767  0.45469792    -0.21400
C207        C  0.23515283  0.54788540  0.49591923    -0.09500
C208        C  0.24284241  0.52724806  0.54177293     0.29400
F209        F  0.23594842  0.55189444  0.58279538    -0.20000
H210        H  0.26284938  0.46546166  0.58166046     0.17800
H211        H  0.23605501  0.53503878  0.41894632     0.17800
F212        F  0.26262297  0.44849917  0.41782048    -0.20000
C213        C  0.47432725  0.80596434  0.75713949    -0.21400
C214        C  0.48838897  0.79633284  0.80385008    -0.09400
C215        C  0.02765037  0.78590848  0.81001307     0.29400
C216        C  0.05204481  0.78424743  0.77010025    -0.21400
C217        C  0.03809497  0.79394707  0.72337888    -0.09500
C218        C  0.49897565  0.80539995  0.71723804     0.29400
F219        F  0.48420894  0.81411417  0.67254760    -0.20000
H220        H  0.44422259  0.81401841  0.75155055     0.17800
H221        H  0.08196241  0.77515163  0.77574033     0.17800
F222        F  0.04224105  0.77541287  0.85444950    -0.20000
C223        C  0.44546466  0.78650794  0.27031615    -0.21400
C224        C  0.45945138  0.79461248  0.22339618    -0.09400
C225        C  0.99873218  0.80471687  0.21702035     0.29400
C226        C  0.02350353  0.80544196  0.25687933    -0.21400
C227        C  0.00941667  0.79747318  0.30380778    -0.09500
C228        C  0.46998256  0.78850139  0.31019270     0.29400
F229        F  0.45529130  0.77983962  0.35487723    -0.20000
H230        H  0.41541319  0.77851248  0.27614058     0.17800
H231        H  0.05371939  0.81238667  0.25108114     0.17800
F232        F  0.01350164  0.81198426  0.17215988    -0.20000
C233        C  0.27641288  0.71443740  0.69676233    -0.21400
C234        C  0.23774437  0.70209460  0.70368572    -0.09400
C235        C  0.22482665  0.69077763  0.75058359     0.29400
C236        C  0.25031006  0.69203942  0.78972142    -0.21400
C237        C  0.28878004  0.70583523  0.78293261    -0.09500
C238        C  0.30159529  0.71694845  0.73590285     0.29400
F239        F  0.33850286  0.73013012  0.72761710    -0.20000
H240        H  0.28696988  0.72345987  0.66095946     0.17800
H241        H  0.23967067  0.68351755  0.82559159     0.17800
F242        F  0.18778319  0.67798652  0.75849131    -0.20000
C243        C  0.27355452  0.69464861  0.25001175    -0.21400
C244        C  0.25950019  0.70324304  0.20310809    -0.09400
C245        C  0.22020966  0.71345300  0.19678021     0.29400
C246        C  0.19576871  0.71575616  0.23666365    -0.21400
C247        C  0.20970396  0.70693882  0.28356080    -0.09500
C248        C  0.24887790  0.69584701  0.28988647     0.29400
F249        F  0.26365937  0.68800917  0.33471515    -0.20000
H250        H  0.30368463  0.68688056  0.25577679     0.17800
H251        H  0.16582212  0.72458356  0.23085307     0.17800
F252        F  0.20564304  0.72316276  0.15217195    -0.20000
C253        C  0.02930588  0.21335702  0.68980678    -0.21400
C254        C  0.49029644  0.20269876  0.69659551    -0.09400
C255        C  0.47698176  0.19227959  0.74353494     0.29400
C256        C  0.50239580  0.19267928  0.78278200    -0.21400
C257        C  0.04122981  0.20471473  0.77609323    -0.09500
C258        C  0.05445024  0.21500983  0.72906347     0.29400
F259        F  0.09171926  0.22655990  0.72090159    -0.20000
H260        H  0.04021406  0.22168325  0.65401607     0.17800
H261        H  0.49144522  0.18494151  0.81866778     0.17800
F262        F  0.43958501  0.18122235  0.75141486    -0.20000
C263        C  0.02515822  0.19452638  0.24308167    -0.21400
C264        C  0.01113949  0.20290674  0.19614039    -0.09400
C265        C  0.47184471  0.21303493  0.18967168     0.29400
C266        C  0.44738133  0.21559673  0.22950040    -0.21400
C267        C  0.46131362  0.20707627  0.27643974    -0.09500
C268        C  0.00046803  0.19599672  0.28288906     0.29400
F269        F  0.01523055  0.18853160  0.32778373    -0.20000
H270        H  0.05528296  0.18679103  0.24894003     0.17800
H271        H  0.41743331  0.22437376  0.22362303     0.17800
F272        F  0.45728919  0.22236706  0.14498002    -0.20000
C273        C  0.30454793  0.28609243  0.76359090    -0.21400
C274        C  0.29026682  0.29365277  0.71668064    -0.09400
C275        C  0.25087506  0.30330476  0.71037759     0.29400
C276        C  0.22627459  0.30410375  0.75033045    -0.21400
C277        C  0.24061975  0.29655476  0.79726960    -0.09500
C278        C  0.28017875  0.28806056  0.80355174     0.29400
F279        F  0.29514313  0.27968365  0.84819881    -0.20000
H280        H  0.33470818  0.27847644  0.76933598     0.17800
H281        H  0.19596508  0.31065577  0.74458296     0.17800
F282        F  0.23585513  0.30999528  0.66550719    -0.20000
C283        C  0.19714252  0.28644464  0.26366461    -0.21400
C284        C  0.21120318  0.29339066  0.21663988    -0.09400
C285        C  0.25049422  0.30327744  0.21005226     0.29400
C286        C  0.27523922  0.30479549  0.24987734    -0.21400
C287        C  0.26110923  0.29785253  0.29693445    -0.09500
C288        C  0.22163567  0.28924027  0.30348492     0.29400
F289        F  0.20687674  0.28162153  0.34830091    -0.20000
H290        H  0.16705546  0.27875508  0.26961306     0.17800
H291        H  0.30547874  0.31146023  0.24394486     0.17800
F292        F  0.26528717  0.30955809  0.16506262    -0.20000
C293        C  0.01213615  0.01449597  0.95400504    -0.21400
C294        C  0.01503132  0.04616381  0.99285072    -0.09400
C295        C  0.50322047  0.02994070  0.03906501     0.29400
C296        C  0.48872697  0.98338509  0.04581261    -0.21400
C297        C  0.48572062  0.95176641  0.00695300    -0.09500
C298        C  0.99763939  0.96792351  0.96075629     0.29400
F299        F  0.99491743  0.93916828  0.92173522    -0.20000
H300        H  0.02110835  0.02572544  0.91811434     0.17800
H301        H  0.47975826  0.97216875  0.08170874     0.17800
F302        F  0.50594279  0.05866882  0.07810256    -0.20000
C303        C  0.23734085  0.48166131  0.04493339    -0.21400
C304        C  0.23651496  0.45113158  0.00494309    -0.09400
C305        C  0.24958085  0.46903778  0.95999941     0.29400
C306        C  0.26302742  0.51629651  0.95551257    -0.21400
C307        C  0.26378737  0.54686502  0.99549175    -0.09500
C308        C  0.25077514  0.52891692  0.04044541     0.29400
F309        F  0.25115847  0.55668023  0.08032475    -0.20000
H310        H  0.22733833  0.46911072  0.07995779     0.17800
H311        H  0.27302347  0.52884771  0.92048596     0.17800
F312        F  0.24913152  0.44127392  0.92011349    -0.20000
O313        O  0.68855392  0.27872047  0.02767083    -0.88400
C314        C  0.58155736  0.30415508  0.07643459     0.87600
Mg315      Mg  0.70635714  0.29578023  0.95572042     1.58100
O316        O  0.60372570  0.18303211  0.05604827    -0.88200
O317        O  0.68764800  0.21714845  0.07839739    -0.75500
C318        C  0.56697948  0.20929067  0.81836791     0.92600
O319        O  0.62984264  0.36170585  0.99638166    -0.75300
O320        O  0.59403519  0.24010363  0.81635378    -0.82800
Mg321      Mg  0.65986459  0.33451497  0.06586806     1.58000
C322        C  0.53188227  0.09482950  0.98537695     0.92600
O323        O  0.69109275  0.31339081  0.13671893    -0.81100
H324        H  0.63797636  0.12600131  0.06744834    -0.06400
C325        C  0.54721138  0.25302604  0.94596258     0.87500
O326        O  0.69842905  0.21698142  0.93392407    -0.75600
O327        O  0.61398855  0.28628804  0.08014356    -0.88400
O328        O  0.53280435  0.12355784  0.02065748    -0.81200
C329        C  0.53741245  0.20268429  0.15420501     0.92700
C330        C  0.68524289  0.28794908  0.17481427     0.92500
Mg331      Mg  0.59195562  0.16212342  0.92775033     1.58000
O332        O  0.56080493  0.18336573  0.85618774    -0.81100
O333        O  0.62205489  0.13560503  0.99743799    -0.75300
O334        O  0.57180372  0.21763441  0.15906405    -0.81200
O335        O  0.70592993  0.38915521  0.05056235    -0.82900
O336        O  0.68021570  0.28044248  0.83462555    -0.81200
C337        C  0.62145707  0.14722726  0.04170806     0.87000
O338        O  0.63796298  0.21071866  0.91318990    -0.88300
O339        O  0.56339025  0.21820693  0.96579684    -0.88500
O340        O  0.56431029  0.27986181  0.91521259    -0.75500
Mg341      Mg  0.62867197  0.21948955  0.11557094     1.58000
O342        O  0.52455671  0.18857887  0.11387589    -0.82900
H343        H  0.73374447  0.23501121  0.03716471    -0.06600
O344        O  0.64819747  0.31435489  0.93781095    -0.88200
H345        H  0.61412952  0.37154228  0.92631679    -0.06400
H346        H  0.67508553  0.15611644  0.90697525    -0.06600
C347        C  0.63051431  0.35019726  0.95209735     0.86900
C348        C  0.70468773  0.24380156  0.04741441     0.87500
C349        C  0.67054534  0.19324557  0.91685923     0.87600
H350        H  0.51807377  0.26162689  0.95601087    -0.06600
O351        O  0.55358219  0.28082381  0.05913055    -0.75600
Mg352      Mg  0.62331860  0.27786981  0.87826333     1.58000
H353        H  0.57728878  0.34133155  0.08632731    -0.06600
C354        C  0.72000468  0.40212073  0.01010060     0.92600
O355        O  0.72726083  0.31008053  0.87976412    -0.82800
C356        C  0.71446231  0.29598331  0.83939169     0.92600
O357        O  0.65806213  0.25736158  0.17760861    -0.82800
Mg358      Mg  0.54563616  0.20202909  0.03790666     1.58200
O359        O  0.71916679  0.37458462  0.97379695    -0.81200
O360        O  0.54583381  0.10655928  0.94435967    -0.82900
O361        O  0.93665597  0.78017202  0.03438950    -0.88400
C362        C  0.82954722  0.80526760  0.08319055     0.87600
Mg363      Mg  0.95435544  0.79605256  0.96228167     1.58100
O364        O  0.85195585  0.68413709  0.06250300    -0.88200
O365        O  0.93590325  0.71870245  0.08519265    -0.75500
C366        C  0.81459775  0.71088548  0.82507893     0.92600
O367        O  0.87800469  0.86300661  0.00262082    -0.75300
O368        O  0.84162753  0.74169735  0.82287877    -0.82800
Mg369      Mg  0.90813784  0.83647939  0.07217254     1.58000
C370        C  0.78008060  0.59601279  0.99028590     0.92600
O371        O  0.93934462  0.81545801  0.14347556    -0.81100
H372        H  0.88605549  0.62691526  0.07368861    -0.06400
C373        C  0.79521307  0.75454327  0.95302984     0.87500
O374        O  0.94612621  0.71725436  0.94125077    -0.75600
O375        O  0.86216237  0.78788740  0.08691265    -0.88400
O376        O  0.78111124  0.62346214  0.02668052    -0.81200
C377        C  0.78570550  0.70311235  0.16104894     0.92700
C378        C  0.93349385  0.78966632  0.18142209     0.92500
Mg379      Mg  0.83984203  0.66383091  0.93414650     1.58000
O380        O  0.80858970  0.68512889  0.86298713    -0.81100
O381        O  0.86993729  0.63672048  0.00374954    -0.75300
O382        O  0.81997777  0.71860355  0.16568776    -0.81200
O383        O  0.95433797  0.89184023  0.05537635    -0.82900
O384        O  0.92783103  0.78116953  0.84101765    -0.81200
C385        C  0.86955759  0.64828758  0.04804706     0.87000
O386        O  0.88578312  0.71197539  0.91983096    -0.88300
O387        O  0.81131203  0.71950998  0.97259392    -0.88500
O388        O  0.81227620  0.78132017  0.92218417    -0.75500
Mg389      Mg  0.87690180  0.72085258  0.12208841     1.58000
O390        O  0.77290073  0.68855189  0.12083496    -0.82900
H391        H  0.98209449  0.73698646  0.04433717    -0.06600
O392        O  0.89626922  0.81523220  0.94431551    -0.88200
H393        H  0.86224282  0.87239991  0.93254069    -0.06400
H394        H  0.92239088  0.65679343  0.91400988    -0.06600
C395        C  0.87865508  0.85121139  0.95842104     0.86900
C396        C  0.95293471  0.74550188  0.05435683     0.87500
C397        C  0.91816878  0.69401333  0.92378135     0.87600
H398        H  0.76617548  0.76334458  0.96335176    -0.06600
O399        O  0.80167531  0.78139257  0.06626565    -0.75600
Mg400      Mg  0.87115734  0.77906494  0.88484577     1.58000
H401        H  0.82495749  0.84242822  0.09292771    -0.06600
C402        C  0.96855239  0.90328607  0.01443214     0.92600
O403        O  0.97530740  0.80936508  0.88635823    -0.82800
C404        C  0.96226966  0.79590547  0.84590781     0.92600
O405        O  0.90637911  0.75892550  0.18396802    -0.82800
Mg406      Mg  0.79373923  0.70250243  0.04468222     1.58200
O407        O  0.96759448  0.87445958  0.97924501    -0.81200
O408        O  0.79375259  0.60920006  0.94965618    -0.82900
O409        O  0.93884557  0.22118601  0.46564511    -0.88400
C410        C  0.83185383  0.19577997  0.41625747     0.87600
Mg411      Mg  0.95655301  0.20453917  0.53779004     1.58100
O412        O  0.85352367  0.31680607  0.43756445    -0.88200
O413        O  0.93764401  0.28283893  0.41503690    -0.75500
C414        C  0.81610405  0.28879710  0.67466782     0.92600
O415        O  0.88064789  0.13787740  0.49669536    -0.75300
O416        O  0.84345723  0.25828844  0.67715143    -0.82800
Mg417      Mg  0.91049279  0.16517737  0.42736910     1.58000
C418        C  0.78085683  0.40389656  0.50982013     0.92600
O419        O  0.94146803  0.18654629  0.35636104    -0.81100
H420        H  0.88732063  0.37418486  0.42681342    -0.06400
C421        C  0.79715290  0.24562603  0.54656247     0.87500
O422        O  0.94803410  0.28320022  0.55951116    -0.75600
O423        O  0.86430749  0.21348624  0.41297611    -0.88400
O424        O  0.78231009  0.37669785  0.47329648    -0.81200
C425        C  0.78740486  0.29793053  0.33894068     0.92700
C426        C  0.93543832  0.21223170  0.31838819     0.92500
Mg427      Mg  0.84120240  0.33636633  0.56595699     1.58000
O428        O  0.81000241  0.31455978  0.63676812    -0.81100
O429        O  0.87120190  0.36396511  0.49663949    -0.75300
O430        O  0.82169074  0.28236811  0.33429673    -0.81200
O431        O  0.95684844  0.11023521  0.44334679    -0.82900
O432        O  0.92976844  0.21860191  0.65914253    -0.81200
C433        C  0.87091912  0.35263061  0.45227785     0.87000
O434        O  0.88756048  0.28839723  0.58036800    -0.88300
O435        O  0.81314493  0.28068519  0.52713221    -0.88500
O436        O  0.81428977  0.21885397  0.57746745    -0.75500
Mg437      Mg  0.87863017  0.28051204  0.37790440     1.58000
O438        O  0.77465375  0.31249527  0.37913966    -0.82900
H439        H  0.98391925  0.26480953  0.45611800    -0.06600
O440        O  0.89850731  0.18536795  0.55537173    -0.88200
H441        H  0.86498219  0.12784810  0.56668032    -0.06400
H442        H  0.92398680  0.34350829  0.58690550    -0.06600
C443        C  0.88119015  0.14936082  0.54098358     0.86900
C444        C  0.95484902  0.25608972  0.44591366     0.87500
C445        C  0.91991231  0.30636849  0.57682581     0.87600
H446        H  0.76815688  0.23682319  0.53610221    -0.06600
O447        O  0.80373340  0.21928870  0.43312877    -0.75600
Mg448      Mg  0.87316095  0.22112092  0.61501534     1.58000
H449        H  0.82763582  0.15866374  0.40618646    -0.06600
C450        C  0.97060166  0.09778828  0.48424080     0.92600
O451        O  0.97740056  0.19054906  0.61389848    -0.82800
C452        C  0.96418931  0.20359704  0.65442018     0.92600
O453        O  0.90817081  0.24287929  0.31581524    -0.82800
Mg454      Mg  0.79546098  0.29799952  0.45511224     1.58200
O455        O  0.96969453  0.12599892  0.52000872    -0.81200
O456        O  0.79453790  0.39068649  0.55050357    -0.82900
O457        O  0.68672674  0.72025098  0.47304781    -0.88400
C458        C  0.57985893  0.69513332  0.42370205     0.87600
Mg459      Mg  0.70412548  0.70298410  0.54520853     1.58100
O460        O  0.60167420  0.81612985  0.44467441    -0.88200
O461        O  0.68575367  0.78199850  0.42255637    -0.75500
C462        C  0.56392566  0.78914631  0.68136128     0.92600
O463        O  0.62844652  0.63698137  0.50358496    -0.75300
O464        O  0.59105254  0.75830466  0.68375956    -0.82800
Mg465      Mg  0.65851691  0.66459558  0.43434332     1.58000
C466        C  0.52972013  0.90440303  0.51563519     0.92600
O467        O  0.68982581  0.68622130  0.36352812    -0.81100
H468        H  0.63561011  0.87330803  0.43354136    -0.06400
C469        C  0.54480009  0.74591719  0.55372602     0.87500
O470        O  0.69595523  0.78173152  0.56709081    -0.75600
O471        O  0.61230630  0.71281481  0.42006504    -0.88400
O472        O  0.53066738  0.87621470  0.47984462    -0.81200
C473        C  0.53565938  0.79725351  0.34588005     0.92700
C474        C  0.68377826  0.71188322  0.32554795     0.92500
Mg475      Mg  0.58941994  0.83652131  0.57273650     1.58000
O476        O  0.55803171  0.81517449  0.64357289    -0.81100
O477        O  0.61960078  0.86351901  0.50344394    -0.75300
O478        O  0.56998139  0.78182803  0.34123096    -0.81200
O479        O  0.70500290  0.61013485  0.44989919    -0.82900
O480        O  0.67726542  0.71798985  0.66620185    -0.81200
C481        C  0.61917482  0.85197367  0.45915389     0.87000
O482        O  0.63539488  0.78784774  0.58730697    -0.88300
O483        O  0.56099308  0.78081205  0.53426134    -0.88500
O484        O  0.56183601  0.71885116  0.58445600    -0.75500
Mg485      Mg  0.62680310  0.77983397  0.38509274     1.58000
O486        O  0.52282656  0.81156466  0.38612522    -0.82900
H487        H  0.73184782  0.76388468  0.46394848    -0.06600
O488        O  0.64594679  0.68445417  0.56243570    -0.88200
H489        H  0.61232467  0.62695731  0.57343601    -0.06400
H490        H  0.67226166  0.84246446  0.59406372    -0.06600
C491        C  0.62866906  0.64848400  0.54788886     0.86900
C492        C  0.70281891  0.75520298  0.45352694     0.87500
C493        C  0.66791723  0.80536575  0.58401064     0.87600
H494        H  0.51572281  0.73744337  0.54334342    -0.06600
O495        O  0.55181749  0.71869870  0.44070736    -0.75600
Mg496      Mg  0.62067365  0.72068721  0.62195380     1.58000
H497        H  0.57559710  0.65795297  0.41388539    -0.06600
C498        C  0.71845997  0.59684023  0.49067876     0.92600
O499        O  0.72464287  0.68860535  0.62135334    -0.82800
C500        C  0.71154861  0.70242536  0.66166198     0.92600
O501        O  0.65638983  0.74234260  0.32297398    -0.82800
Mg502      Mg  0.54354325  0.79752667  0.46217332     1.58200
O503        O  0.71705356  0.62410342  0.52717066    -0.81200
O504        O  0.54334360  0.89186672  0.55657606    -0.82900
C505        C  0.49834834  0.96730884  0.46330830    -0.21400
C506        C  0.51359967  0.95353061  0.50852139    -0.09400
C507        C  0.01529426  0.98802290  0.54520392     0.29400
C508        C  0.00200067  0.03491775  0.53656416    -0.21400
C509        C  0.98676522  0.04869581  0.49134572    -0.09500
C510        C  0.48506684  0.01420841  0.45466445     0.29400
F511        F  0.47026452  0.02533975  0.41049328    -0.20000
H512        H  0.49681133  0.94177450  0.43422736     0.17800
H513        H  0.00352281  0.06044925  0.56564950     0.17800
F514        F  0.03012325  0.97691381  0.58936400    -0.20000
C515        C  0.75712704  0.48027510  0.54591604    -0.21400
C516        C  0.76386259  0.45269463  0.50467814    -0.09400
C517        C  0.75598417  0.47324943  0.45884379     0.29400
C518        C  0.74178340  0.52024767  0.45469793    -0.21400
C519        C  0.73515290  0.54788543  0.49591923    -0.09500
C520        C  0.74284248  0.52724814  0.54177295     0.29400
F521        F  0.73594854  0.55189466  0.58279534    -0.20000
H522        H  0.76284946  0.46546171  0.58166049     0.17800
H523        H  0.73605509  0.53503878  0.41894632     0.17800
F524        F  0.76262305  0.44849917  0.41782048    -0.20000
C525        C  0.97432717  0.80596432  0.75713948    -0.21400
C526        C  0.98838889  0.79633280  0.80385008    -0.09400
C527        C  0.52765042  0.78590849  0.81001307     0.29400
C528        C  0.55204489  0.78424743  0.77010026    -0.21400
C529        C  0.53809502  0.79394708  0.72337889    -0.09500
C530        C  0.99897558  0.80539995  0.71723803     0.29400
F531        F  0.98420882  0.81411416  0.67254762    -0.20000
H532        H  0.94422250  0.81401837  0.75155052     0.17800
H533        H  0.58196250  0.77515159  0.77574031     0.17800
F534        F  0.54224098  0.77541283  0.85444955    -0.20000
C535        C  0.94546467  0.78650788  0.27031617    -0.21400
C536        C  0.95945139  0.79461248  0.22339620    -0.09400
C537        C  0.49873220  0.80471684  0.21702035     0.29400
C538        C  0.52350354  0.80544194  0.25687935    -0.21400
C539        C  0.50941666  0.79747316  0.30380779    -0.09500
C540        C  0.96998259  0.78850139  0.31019270     0.29400
F541        F  0.95529136  0.77983960  0.35487724    -0.20000
H542        H  0.91541323  0.77851234  0.27614060     0.17800
H543        H  0.55371942  0.81238667  0.25108119     0.17800
F544        F  0.51350171  0.81198426  0.17215989    -0.20000
C545        C  0.77641289  0.71443739  0.69676231    -0.21400
C546        C  0.73774439  0.70209460  0.70368568    -0.09400
C547        C  0.72482670  0.69077763  0.75058357     0.29400
C548        C  0.75031010  0.69203940  0.78972142    -0.21400
C549        C  0.78878007  0.70583518  0.78293260    -0.09500
C550        C  0.80159528  0.71694843  0.73590284     0.29400
F551        F  0.83850282  0.73013017  0.72761708    -0.20000
H552        H  0.78696994  0.72345989  0.66095947     0.17800
H553        H  0.73967073  0.68351754  0.82559160     0.17800
F554        F  0.68778326  0.67798652  0.75849131    -0.20000
C555        C  0.77355456  0.69464861  0.25001173    -0.21400
C556        C  0.75950019  0.70324303  0.20310810    -0.09400
C557        C  0.72020968  0.71345301  0.19678022     0.29400
C558        C  0.69576875  0.71575623  0.23666367    -0.21400
C559        C  0.70970404  0.70693897  0.28356083    -0.09500
C560        C  0.74887797  0.69584708  0.28988647     0.29400
F561        F  0.76365945  0.68800917  0.33471514    -0.20000
H562        H  0.80368467  0.68688053  0.25577673     0.17800
H563        H  0.66582214  0.72458357  0.23085310     0.17800
F564        F  0.70564308  0.72316277  0.15217194    -0.20000
C565        C  0.52930587  0.21335700  0.68980677    -0.21400
C566        C  0.99029645  0.20269877  0.69659551    -0.09400
C567        C  0.97698174  0.19227961  0.74353493     0.29400
C568        C  0.00239576  0.19267929  0.78278200    -0.21400
C569        C  0.54122984  0.20471472  0.77609322    -0.09500
C570        C  0.55445023  0.21500982  0.72906345     0.29400
F571        F  0.59171921  0.22655994  0.72090156    -0.20000
H572        H  0.54021405  0.22168324  0.65401607     0.17800
H573        H  0.99144514  0.18494150  0.81866775     0.17800
F574        F  0.93958500  0.18122234  0.75141485    -0.20000
C575        C  0.52515825  0.19452639  0.24308165    -0.21400
C576        C  0.51113949  0.20290672  0.19614037    -0.09400
C577        C  0.97184472  0.21303494  0.18967167     0.29400
C578        C  0.94738132  0.21559673  0.22950038    -0.21400
C579        C  0.96131359  0.20707625  0.27643973    -0.09500
C580        C  0.50046807  0.19599674  0.28288907     0.29400
F581        F  0.51523063  0.18853161  0.32778373    -0.20000
H582        H  0.55528300  0.18679104  0.24893998     0.17800
H583        H  0.91743332  0.22437378  0.22362299     0.17800
F584        F  0.95728924  0.22236707  0.14498001    -0.20000
C585        C  0.80454800  0.28609243  0.76359090    -0.21400
C586        C  0.79026687  0.29365281  0.71668065    -0.09400
C587        C  0.75087512  0.30330477  0.71037760     0.29400
C588        C  0.72627466  0.30410374  0.75033046    -0.21400
C589        C  0.74061983  0.29655476  0.79726961    -0.09500
C590        C  0.78017882  0.28806056  0.80355174     0.29400
F591        F  0.79514321  0.27968365  0.84819881    -0.20000
H592        H  0.83470827  0.27847643  0.76933597     0.17800
H593        H  0.69596517  0.31065574  0.74458296     0.17800
F594        F  0.73585520  0.30999528  0.66550719    -0.20000
C595        C  0.69714253  0.28644465  0.26366460    -0.21400
C596        C  0.71120320  0.29339069  0.21663988    -0.09400
C597        C  0.75049425  0.30327744  0.21005227     0.29400
C598        C  0.77523923  0.30479548  0.24987735    -0.21400
C599        C  0.76110922  0.29785253  0.29693445    -0.09500
C600        C  0.72163567  0.28924029  0.30348492     0.29400
F601        F  0.70687677  0.28162152  0.34830092    -0.20000
H602        H  0.66705548  0.27875508  0.26961303     0.17800
H603        H  0.80547874  0.31146019  0.24394489     0.17800
F604        F  0.76528723  0.30955808  0.16506264    -0.20000
C605        C  0.51213600  0.01449602  0.95400501    -0.21400
C606        C  0.51503124  0.04616385  0.99285069    -0.09400
C607        C  0.00322043  0.02994070  0.03906500     0.29400
C608        C  0.98872684  0.98338513  0.04581258    -0.21400
C609        C  0.98572060  0.95176641  0.00695299    -0.09500
C610        C  0.49763929  0.96792355  0.96075627     0.29400
F611        F  0.49491735  0.93916828  0.92173522    -0.20000
H612        H  0.52110819  0.02572547  0.91811430     0.17800
H613        H  0.97975799  0.97216885  0.08170867     0.17800
F614        F  0.00594270  0.05866882  0.07810255    -0.20000
C615        C  0.73734085  0.48166131  0.04493339    -0.21400
C616        C  0.73651498  0.45113158  0.00494309    -0.09400
C617        C  0.74958088  0.46903775  0.95999943     0.29400
C618        C  0.76302750  0.51629647  0.95551259    -0.21400
C619        C  0.76378739  0.54686499  0.99549176    -0.09500
C620        C  0.75077509  0.52891693  0.04044539     0.29400
F621        F  0.75115852  0.55668022  0.08032476    -0.20000
H622        H  0.72733834  0.46911073  0.07995778     0.17800
H623        H  0.77302354  0.52884767  0.92048598     0.17800
F624        F  0.74913135  0.44127395  0.92011347    -0.20000
loop_ 
_geom_bond_atom_site_label_1 
_geom_bond_atom_site_label_2 
_geom_bond_distance 
_geom_bond_site_symmetry_2 
_ccdc_geom_bond_type 
O1           Mg3   2.133   1_554  S
O1           Mg9   2.137       .  S
O1           C36   1.237       .  S
C2           O15   1.237       .  S
C2           O39   1.270       .  A
C2           H41   1.081       .  S
Mg3          O32   2.147       .  S
Mg3          O47   2.294       .  S
Mg3          O43   2.256       .  S
Mg3          O14   2.294       .  S
O4          Mg46   2.149       .  S
O4          Mg29   2.135       .  S
O4           C25   1.240       .  S
O5           C36   1.271       .  A
O5          Mg29   2.303       .  S
C6            O8   1.275       .  A
C6           O20   1.278       .  A
C6          C257   1.482       .  S
O7           C35   1.273       .  A
O7           Mg9   2.304   1_556  S
O8          Mg40   2.268       .  S
Mg9          O15   2.120       .  S
Mg9          O23   2.246       .  S
Mg9          O11   2.309       .  S
C10          O48   1.274       .  A
C10          O16   1.272   1_556  A
C10         C294   1.484       .  S
O11          C18   1.275       .  A
H12          C25   1.081       .  S
C13          O27   1.237       .  S
C13          O28   1.271       .  A
C13          H38   1.081       .  S
O14          C37   1.271       .  A
O15         Mg29   2.141       .  S
O16         Mg46   2.280       .  S
C17          O30   1.272       .  A
C17          O22   1.278       .  A
C17         C264   1.480       .  S
C18          O45   1.275       .  A
C18         C284   1.479       .  S
Mg19         O26   2.131       .  S
Mg19         O27   2.139       .  S
Mg19         O20   2.325       .  S
Mg19         O21   2.304       .  S
Mg19         O48   2.271       .  S
O21          C25   1.274   1_556  A
O22         Mg29   2.322       .  S
O23          C42   1.270       .  A
O24          C44   1.278       .  A
O24         Mg40   2.325       .  S
O26         Mg40   2.143       .  S
O26          C37   1.238       .  S
O27         Mg46   2.132   1_556  S
O28         Mg40   2.300       .  S
Mg29         O45   2.274       .  S
O30         Mg46   2.255       .  S
H31          C36   1.081       .  S
O32         Mg40   2.135       .  S
O32          C35   1.239       .  S
H33          C35   1.081       .  S
H34          C37   1.081       .  S
O39         Mg46   2.289       .  S
C42          O47   1.274   1_554  A
C42         C304   1.481       .  S
O43          C44   1.272       .  A
C44         C277   1.482       .  S
O49         Mg51   2.130   1_554  S
O49         Mg57   2.139       .  S
O49          C84   1.237       .  S
C50          O63   1.238       .  S
C50          O87   1.271       .  A
C50          H89   1.081       .  S
Mg51         O80   2.149       .  S
Mg51         O95   2.280       .  S
Mg51         O91   2.252       .  S
Mg51         O62   2.289       .  S
O52         Mg94   2.147       .  S
O52         Mg77   2.139       .  S
O52          C73   1.240       .  S
O53          C84   1.271       .  A
O53         Mg77   2.300       .  S
C54          O56   1.274       .  A
C54          O68   1.277       .  A
C54         C237   1.482       .  S
O55          C83   1.273   1_554  A
O55         Mg57   2.302       .  S
O56         Mg88   2.268       .  S
Mg57         O63   2.131       .  S
Mg57         O71   2.270       .  S
Mg57         O59   2.318       .  S
C58          O96   1.271       .  A
C58          O64   1.274   1_556  A
C58         C307   1.482       .  S
O59          C66   1.277       .  A
H60          C73   1.081       .  S
C61          O75   1.237       .  S
C61          O76   1.271       .  A
C61          H86   1.081       .  S
O62          C85   1.270       .  A
O63         Mg77   2.144       .  S
O64         Mg94   2.299       .  S
C65          O78   1.272       .  A
C65          O70   1.278       .  A
C65         C244   1.482       .  S
C66          O93   1.275       .  A
C66         C224   1.481       .  S
Mg67         O74   2.121       .  S
Mg67         O75   2.136       .  S
Mg67         O68   2.318       .  S
Mg67         O69   2.307   1_556  S
Mg67         O96   2.247       .  S
O69          C73   1.274       .  A
O70         Mg77   2.325       .  S
O71          C90   1.273       .  A
O72          C92   1.277       .  A
O72         Mg88   2.321       .  S
O74         Mg88   2.142       .  S
O74          C85   1.237       .  S
O75         Mg94   2.134   1_556  S
O76         Mg88   2.302       .  S
Mg77         O93   2.275       .  S
O78         Mg94   2.259       .  S
H79          C84   1.081       .  S
O80         Mg88   2.132       .  S
O80          C83   1.240       .  S
H81          C83   1.081       .  S
H82          C85   1.081       .  S
O87         Mg94   2.295       .  S
C90          O95   1.272   1_554  A
C90         C297   1.484       .  S
O91          C92   1.271       .  A
C92         C214   1.480       .  S
O97         Mg99   2.133       .  S
O97        Mg105   2.139       .  S
O97         C132   1.237       .  S
C98         O111   1.237       .  S
C98         O135   1.270       .  A
C98         H137   1.081       .  S
Mg99        O128   2.148       .  S
Mg99        O143   2.286       .  S
Mg99        O139   2.256       .  S
Mg99        O110   2.291       .  S
O100       Mg142   2.146       .  S
O100       Mg125   2.137       .  S
O100        C121   1.240       .  S
O101        C132   1.271       .  A
O101       Mg125   2.301       .  S
C102        O104   1.274       .  A
C102        O116   1.276       .  A
C102        C274   1.480       .  S
O103        C131   1.273       .  A
O103       Mg105   2.302       .  S
O104       Mg136   2.272       .  S
Mg105       O111   2.125       .  S
Mg105       O119   2.257       .  S
Mg105       O107   2.313       .  S
C106        O144   1.271       .  A
C106        O112   1.273       .  A
C106        C204   1.480       .  S
O107        C114   1.276       .  A
H108        C121   1.081       .  S
C109        O123   1.237       .  S
C109        O124   1.271       .  A
C109        H134   1.081       .  S
O110        C133   1.270       .  A
O111       Mg125   2.141       .  S
O112       Mg142   2.293       .  S
C113        O126   1.272       .  A
C113        O118   1.278       .  A
C113        C287   1.481       .  S
C114        O141   1.275       .  A
C114        C267   1.481       .  S
Mg115       O122   2.124       .  S
Mg115       O123   2.135       .  S
Mg115       O116   2.315       .  S
Mg115       O117   2.307       .  S
Mg115       O144   2.250       .  S
O117        C121   1.274       .  A
O118       Mg125   2.323       .  S
O119        C138   1.271       .  A
O120        C140   1.277       .  A
O120       Mg136   2.321       .  S
O122       Mg136   2.143       .  S
O122        C133   1.238       .  S
O123       Mg142   2.133       .  S
O124       Mg136   2.302       .  S
Mg125       O141   2.274       .  S
O126       Mg142   2.254       .  S
H127        C132   1.081       .  S
O128       Mg136   2.133       .  S
O128        C131   1.239       .  S
H129        C131   1.081       .  S
H130        C133   1.081       .  S
O135       Mg142   2.293       .  S
C138        O143   1.273       .  A
C138        C197   1.482       .  S
O139        C140   1.272       .  A
C140        C254   1.480       .  S
O145       Mg147   2.134       .  S
O145       Mg153   2.135       .  S
O145        C180   1.237       .  S
C146        O159   1.238       .  S
C146        O183   1.271       .  A
C146        H185   1.081       .  S
Mg147       O176   2.146       .  S
Mg147       O191   2.295       .  S
Mg147       O187   2.255       .  S
Mg147       O158   2.293       .  S
O148       Mg190   2.147       .  S
O148       Mg173   2.136       .  S
O148        C169   1.240       .  S
O149        C180   1.271       .  A
O149       Mg173   2.303       .  S
C150        O152   1.275       .  A
C150        O164   1.277       .  A
C150        C217   1.480       .  S
O151        C179   1.273       .  A
O151       Mg153   2.306       .  S
O152       Mg184   2.269       .  S
Mg153       O159   2.124       .  S
Mg153       O167   2.249       .  S
Mg153       O155   2.316       .  S
C154        O192   1.271       .  A
C154        O160   1.274       .  A
C154        C194   1.482       .  S
O155        C162   1.276       .  A
H156        C169   1.081       .  S
C157        O171   1.237       .  S
C157        O172   1.271       .  A
C157        H182   1.081       .  S
O158        C181   1.271       .  A
O159       Mg173   2.141       .  S
O160       Mg190   2.288       .  S
C161        O174   1.271       .  A
C161        O166   1.278       .  A
C161        C227   1.481       .  S
C162        O189   1.275       .  A
C162        C247   1.482       .  S
Mg163       O170   2.127       .  S
Mg163       O171   2.137       .  S
Mg163       O164   2.316       .  S
Mg163       O165   2.304       .  S
Mg163       O192   2.258       .  S
O165        C169   1.273       .  A
O166       Mg173   2.323       .  S
O167        C186   1.271       .  A
O168        C188   1.277       .  A
O168       Mg184   2.322       .  S
O170       Mg184   2.143       .  S
O170        C181   1.238       .  S
O171       Mg190   2.129       .  S
O172       Mg184   2.300       .  S
Mg173       O189   2.274       .  S
O174       Mg190   2.253       .  S
H175        C180   1.081       .  S
O176       Mg184   2.136       .  S
O176        C179   1.239       .  S
H177        C179   1.081       .  S
H178        C181   1.081       .  S
O183       Mg190   2.292       .  S
C186        O191   1.274       .  A
C186        C207   1.480       .  S
O187        C188   1.272       .  A
C188        C234   1.479       .  S
C193        H200   1.083       .  S
C193        C194   1.406   1_655  A
C193        C198   1.396   1_565  A
C194        C507   1.409       .  A
C195        C196   1.396   1_565  A
C195        C506   1.409       .  A
C195        F202   1.357       .  S
C196        H201   1.083       .  S
C196        C197   1.406       .  A
C197        C510   1.409       .  A
C198        C509   1.409       .  A
C198        F199   1.358       .  S
C203        H210   1.083       .  S
C203        C204   1.406       .  A
C203        C208   1.396       .  A
C204        C205   1.409       .  A
C205        C206   1.395       .  A
C205        F212   1.358       .  S
C206        H211   1.083       .  S
C206        C207   1.405       .  A
C207        C208   1.409       .  A
C208        F209   1.358       .  S
C213        H220   1.083       .  S
C213        C214   1.404       .  A
C213        C218   1.401       .  A
C214        C527   1.408       .  A
C215        C216   1.397       .  A
C215        C526   1.408   1_455  A
C215        F222   1.358       .  S
C216        H221   1.083       .  S
C216        C217   1.403       .  A
C217        C530   1.409   1_455  A
C218        C529   1.409       .  A
C218        F219   1.358       .  S
C223        H230   1.083       .  S
C223        C224   1.403       .  A
C223        C228   1.398       .  A
C224        C537   1.410       .  A
C225        C226   1.401   1_655  A
C225        C536   1.410       .  A
C225        F232   1.357   1_655  S
C226        H231   1.083       .  S
C226        C227   1.404       .  A
C227        C540   1.409   1_455  A
C228        C539   1.409       .  A
C228        F229   1.358       .  S
C233        H240   1.083       .  S
C233        C234   1.405       .  A
C233        C238   1.397       .  A
C234        C235   1.406       .  A
C235        C236   1.402       .  A
C235        F242   1.357       .  S
C236        H241   1.083       .  S
C236        C237   1.408       .  A
C237        C238   1.407       .  A
C238        F239   1.357       .  S
C243        H250   1.083       .  S
C243        C244   1.404       .  A
C243        C248   1.402       .  A
C244        C245   1.409       .  A
C245        C246   1.398       .  A
C245        F252   1.358       .  S
C246        H251   1.083       .  S
C246        C247   1.404       .  A
C247        C248   1.410       .  A
C248        F249   1.358       .  S
C253        H260   1.083       .  S
C253        C258   1.398       .  A
C253        C566   1.405   1_455  A
C254        C255   1.406       .  A
C254        C565   1.405       .  A
C255        C256   1.402       .  A
C255        F262   1.357       .  S
C256        H261   1.083       .  S
C256        C569   1.407       .  A
C257        C258   1.407       .  A
C257        C568   1.407       .  A
C258        F259   1.358       .  S
C263        H270   1.083       .  S
C263        C264   1.404       .  A
C263        C268   1.401       .  A
C264        C577   1.409   1_455  A
C265        C266   1.398       .  A
C265        C576   1.409       .  A
C265        F272   1.358       .  S
C266        H271   1.083       .  S
C266        C267   1.403       .  A
C267        C580   1.409       .  A
C268        C579   1.409   1_455  A
C268        F269   1.358       .  S
C273        H280   1.083       .  S
C273        C274   1.403       .  A
C273        C278   1.398       .  A
C274        C275   1.409       .  A
C275        C276   1.401       .  A
C275        F282   1.358       .  S
C276        H281   1.083       .  S
C276        C277   1.405       .  A
C277        C278   1.409       .  A
C278        F279   1.358       .  S
C283        H290   1.083       .  S
C283        C284   1.402       .  A
C283        C288   1.398       .  A
C284        C285   1.409       .  A
C285        C286   1.401       .  A
C285        F292   1.358       .  S
C286        H291   1.083       .  S
C286        C287   1.404       .  A
C287        C288   1.409       .  A
C288        F289   1.358       .  S
C293        H300   1.083       .  S
C293        C294   1.404       .  A
C293        C298   1.397   1_445  A
C294        C607   1.411   1_556  A
C295        C296   1.396   1_545  A
C295        C606   1.411   1_554  A
C295        F302   1.358       .  S
C296        H301   1.083       .  S
C296        C297   1.404       .  A
C297        C610   1.411   1_554  A
C298        C609   1.411   1_556  A
C298        F299   1.358       .  S
C303        H310   1.083       .  S
C303        C304   1.406       .  A
C303        C308   1.396       .  A
C304        C305   1.408   1_554  A
C305        C306   1.396       .  A
C305        F312   1.358       .  S
C306        H311   1.083       .  S
C306        C307   1.407       .  A
C307        C308   1.408   1_556  A
C308        F309   1.358       .  S
O313       Mg315   2.133   1_554  S
O313       Mg321   2.137       .  S
O313        C348   1.237       .  S
C314        O327   1.237       .  S
C314        O351   1.270       .  A
C314        H353   1.081       .  S
Mg315       O344   2.147       .  S
Mg315       O359   2.294       .  S
Mg315       O355   2.256       .  S
Mg315       O326   2.294       .  S
O316       Mg358   2.149       .  S
O316       Mg341   2.135       .  S
O316        C337   1.240       .  S
O317        C348   1.271       .  A
O317       Mg341   2.303       .  S
C318        O320   1.275       .  A
C318        O332   1.278       .  A
C318        C569   1.482       .  S
O319        C347   1.273       .  A
O319       Mg321   2.304   1_556  S
O320       Mg352   2.268       .  S
Mg321       O327   2.120       .  S
Mg321       O335   2.246       .  S
Mg321       O323   2.309       .  S
C322        O360   1.274       .  A
C322        O328   1.272   1_556  A
C322        C606   1.484       .  S
O323        C330   1.275       .  A
H324        C337   1.081       .  S
C325        O339   1.237       .  S
C325        O340   1.271       .  A
C325        H350   1.081       .  S
O326        C349   1.271       .  A
O327       Mg341   2.141       .  S
O328       Mg358   2.280       .  S
C329        O342   1.272       .  A
C329        O334   1.278       .  A
C329        C576   1.480       .  S
C330        O357   1.275       .  A
C330        C596   1.479       .  S
Mg331       O338   2.131       .  S
Mg331       O339   2.139       .  S
Mg331       O332   2.325       .  S
Mg331       O333   2.304       .  S
Mg331       O360   2.271       .  S
O333        C337   1.274   1_556  A
O334       Mg341   2.322       .  S
O335        C354   1.270       .  A
O336        C356   1.278       .  A
O336       Mg352   2.325       .  S
O338       Mg352   2.143       .  S
O338        C349   1.238       .  S
O339       Mg358   2.132   1_556  S
O340       Mg352   2.300       .  S
Mg341       O357   2.274       .  S
O342       Mg358   2.255       .  S
H343        C348   1.081       .  S
O344       Mg352   2.135       .  S
O344        C347   1.239       .  S
H345        C347   1.081       .  S
H346        C349   1.081       .  S
O351       Mg358   2.289       .  S
C354        O359   1.274   1_554  A
C354        C616   1.481       .  S
O355        C356   1.272       .  A
C356        C589   1.482       .  S
O361       Mg363   2.130   1_554  S
O361       Mg369   2.139       .  S
O361        C396   1.237       .  S
C362        O375   1.238       .  S
C362        O399   1.271       .  A
C362        H401   1.081       .  S
Mg363       O392   2.149       .  S
Mg363       O407   2.280       .  S
Mg363       O403   2.252       .  S
Mg363       O374   2.289       .  S
O364       Mg406   2.147       .  S
O364       Mg389   2.139       .  S
O364        C385   1.240       .  S
O365        C396   1.271       .  A
O365       Mg389   2.300       .  S
C366        O368   1.274       .  A
C366        O380   1.277       .  A
C366        C549   1.482       .  S
O367        C395   1.273   1_554  A
O367       Mg369   2.302       .  S
O368       Mg400   2.268       .  S
Mg369       O375   2.131       .  S
Mg369       O383   2.270       .  S
Mg369       O371   2.318       .  S
C370        O408   1.271       .  A
C370        O376   1.274   1_556  A
C370        C619   1.482       .  S
O371        C378   1.277       .  A
H372        C385   1.081       .  S
C373        O387   1.237       .  S
C373        O388   1.271       .  A
C373        H398   1.081       .  S
O374        C397   1.270       .  A
O375       Mg389   2.144       .  S
O376       Mg406   2.299       .  S
C377        O390   1.272       .  A
C377        O382   1.278       .  A
C377        C556   1.482       .  S
C378        O405   1.275       .  A
C378        C536   1.481       .  S
Mg379       O386   2.121       .  S
Mg379       O387   2.136       .  S
Mg379       O380   2.318       .  S
Mg379       O381   2.307   1_556  S
Mg379       O408   2.247       .  S
O381        C385   1.274       .  A
O382       Mg389   2.325       .  S
O383        C402   1.273       .  A
O384        C404   1.277       .  A
O384       Mg400   2.321       .  S
O386       Mg400   2.142       .  S
O386        C397   1.237       .  S
O387       Mg406   2.134   1_556  S
O388       Mg400   2.302       .  S
Mg389       O405   2.275       .  S
O390       Mg406   2.259       .  S
H391        C396   1.081       .  S
O392       Mg400   2.132       .  S
O392        C395   1.240       .  S
H393        C395   1.081       .  S
H394        C397   1.081       .  S
O399       Mg406   2.295       .  S
C402        O407   1.272   1_554  A
C402        C609   1.484       .  S
O403        C404   1.271       .  A
C404        C526   1.480       .  S
O409       Mg411   2.133       .  S
O409       Mg417   2.139       .  S
O409        C444   1.237       .  S
C410        O423   1.237       .  S
C410        O447   1.270       .  A
C410        H449   1.081       .  S
Mg411       O440   2.148       .  S
Mg411       O455   2.286       .  S
Mg411       O451   2.256       .  S
Mg411       O422   2.291       .  S
O412       Mg454   2.146       .  S
O412       Mg437   2.137       .  S
O412        C433   1.240       .  S
O413        C444   1.271       .  A
O413       Mg437   2.301       .  S
C414        O416   1.274       .  A
C414        O428   1.276       .  A
C414        C586   1.480       .  S
O415        C443   1.273       .  A
O415       Mg417   2.302       .  S
O416       Mg448   2.272       .  S
Mg417       O423   2.125       .  S
Mg417       O431   2.257       .  S
Mg417       O419   2.313       .  S
C418        O456   1.271       .  A
C418        O424   1.273       .  A
C418        C516   1.480       .  S
O419        C426   1.276       .  A
H420        C433   1.081       .  S
C421        O435   1.237       .  S
C421        O436   1.271       .  A
C421        H446   1.081       .  S
O422        C445   1.270       .  A
O423       Mg437   2.141       .  S
O424       Mg454   2.293       .  S
C425        O438   1.272       .  A
C425        O430   1.278       .  A
C425        C599   1.481       .  S
C426        O453   1.275       .  A
C426        C579   1.481       .  S
Mg427       O434   2.124       .  S
Mg427       O435   2.135       .  S
Mg427       O428   2.315       .  S
Mg427       O429   2.307       .  S
Mg427       O456   2.250       .  S
O429        C433   1.274       .  A
O430       Mg437   2.323       .  S
O431        C450   1.271       .  A
O432        C452   1.277       .  A
O432       Mg448   2.321       .  S
O434       Mg448   2.143       .  S
O434        C445   1.238       .  S
O435       Mg454   2.133       .  S
O436       Mg448   2.302       .  S
Mg437       O453   2.274       .  S
O438       Mg454   2.254       .  S
H439        C444   1.081       .  S
O440       Mg448   2.133       .  S
O440        C443   1.239       .  S
H441        C443   1.081       .  S
H442        C445   1.081       .  S
O447       Mg454   2.293       .  S
C450        O455   1.273       .  A
C450        C509   1.482       .  S
O451        C452   1.272       .  A
C452        C566   1.480       .  S
O457       Mg459   2.134       .  S
O457       Mg465   2.135       .  S
O457        C492   1.237       .  S
C458        O471   1.238       .  S
C458        O495   1.271       .  A
C458        H497   1.081       .  S
Mg459       O488   2.146       .  S
Mg459       O503   2.295       .  S
Mg459       O499   2.255       .  S
Mg459       O470   2.293       .  S
O460       Mg502   2.147       .  S
O460       Mg485   2.136       .  S
O460        C481   1.240       .  S
O461        C492   1.271       .  A
O461       Mg485   2.303       .  S
C462        O464   1.275       .  A
C462        O476   1.277       .  A
C462        C529   1.480       .  S
O463        C491   1.273       .  A
O463       Mg465   2.306       .  S
O464       Mg496   2.269       .  S
Mg465       O471   2.124       .  S
Mg465       O479   2.249       .  S
Mg465       O467   2.316       .  S
C466        O504   1.271       .  A
C466        O472   1.274       .  A
C466        C506   1.482       .  S
O467        C474   1.276       .  A
H468        C481   1.081       .  S
C469        O483   1.237       .  S
C469        O484   1.271       .  A
C469        H494   1.081       .  S
O470        C493   1.271       .  A
O471       Mg485   2.141       .  S
O472       Mg502   2.288       .  S
C473        O486   1.271       .  A
C473        O478   1.278       .  A
C473        C539   1.481       .  S
C474        O501   1.275       .  A
C474        C559   1.482       .  S
Mg475       O482   2.127       .  S
Mg475       O483   2.137       .  S
Mg475       O476   2.316       .  S
Mg475       O477   2.304       .  S
Mg475       O504   2.258       .  S
O477        C481   1.273       .  A
O478       Mg485   2.323       .  S
O479        C498   1.271       .  A
O480        C500   1.277       .  A
O480       Mg496   2.322       .  S
O482       Mg496   2.143       .  S
O482        C493   1.238       .  S
O483       Mg502   2.129       .  S
O484       Mg496   2.300       .  S
Mg485       O501   2.274       .  S
O486       Mg502   2.253       .  S
H487        C492   1.081       .  S
O488       Mg496   2.136       .  S
O488        C491   1.239       .  S
H489        C491   1.081       .  S
H490        C493   1.081       .  S
O495       Mg502   2.292       .  S
C498        O503   1.274       .  A
C498        C519   1.480       .  S
O499        C500   1.272       .  A
C500        C546   1.479       .  S
C505        H512   1.083       .  S
C505        C506   1.406       .  A
C505        C510   1.396   1_565  A
C507        C508   1.396   1_565  A
C507        F514   1.357       .  S
C508        H513   1.083       .  S
C508        C509   1.406   1_455  A
C510        F511   1.358       .  S
C515        H522   1.083       .  S
C515        C516   1.406       .  A
C515        C520   1.396       .  A
C516        C517   1.409       .  A
C517        C518   1.395       .  A
C517        F524   1.358       .  S
C518        H523   1.083       .  S
C518        C519   1.405       .  A
C519        C520   1.409       .  A
C520        F521   1.358       .  S
C525        H532   1.083       .  S
C525        C526   1.404       .  A
C525        C530   1.401       .  A
C527        C528   1.397       .  A
C527        F534   1.358       .  S
C528        H533   1.083       .  S
C528        C529   1.403       .  A
C530        F531   1.358       .  S
C535        H542   1.083       .  S
C535        C536   1.403       .  A
C535        C540   1.398       .  A
C537        C538   1.401       .  A
C537        F544   1.357       .  S
C538        H543   1.083       .  S
C538        C539   1.404       .  A
C540        F541   1.358       .  S
C545        H552   1.083       .  S
C545        C546   1.405       .  A
C545        C550   1.397       .  A
C546        C547   1.406       .  A
C547        C548   1.402       .  A
C547        F554   1.357       .  S
C548        H553   1.083       .  S
C548        C549   1.408       .  A
C549        C550   1.407       .  A
C550        F551   1.357       .  S
C555        H562   1.083       .  S
C555        C556   1.404       .  A
C555        C560   1.402       .  A
C556        C557   1.409       .  A
C557        C558   1.398       .  A
C557        F564   1.358       .  S
C558        H563   1.083       .  S
C558        C559   1.404       .  A
C559        C560   1.410       .  A
C560        F561   1.358       .  S
C565        H572   1.083       .  S
C565        C570   1.398       .  A
C566        C567   1.406       .  A
C567        C568   1.402   1_655  A
C567        F574   1.357       .  S
C568        H573   1.083   1_455  S
C569        C570   1.407       .  A
C570        F571   1.358       .  S
C575        H582   1.083       .  S
C575        C576   1.404       .  A
C575        C580   1.401       .  A
C577        C578   1.398       .  A
C577        F584   1.358       .  S
C578        H583   1.083       .  S
C578        C579   1.403       .  A
C580        F581   1.358       .  S
C585        H592   1.083       .  S
C585        C586   1.403       .  A
C585        C590   1.398       .  A
C586        C587   1.409       .  A
C587        C588   1.401       .  A
C587        F594   1.358       .  S
C588        H593   1.083       .  S
C588        C589   1.405       .  A
C589        C590   1.409       .  A
C590        F591   1.358       .  S
C595        H602   1.083       .  S
C595        C596   1.402       .  A
C595        C600   1.398       .  A
C596        C597   1.409       .  A
C597        C598   1.401       .  A
C597        F604   1.358       .  S
C598        H603   1.083       .  S
C598        C599   1.404       .  A
C599        C600   1.409       .  A
C600        F601   1.358       .  S
C605        H612   1.083       .  S
C605        C606   1.404       .  A
C605        C610   1.397   1_545  A
C607        C608   1.396   1_445  A
C607        F614   1.358       .  S
C608        H613   1.083       .  S
C608        C609   1.404       .  A
C610        F611   1.358       .  S
C615        H622   1.083       .  S
C615        C616   1.406       .  A
C615        C620   1.396       .  A
C616        C617   1.408   1_554  A
C617        C618   1.396       .  A
C617        F624   1.358       .  S
C618        H623   1.083       .  S
C618        C619   1.407       .  A
C619        C620   1.408   1_556  A
C620        F621   1.358       .  S
