geometry optimzed in LAMMPS
_audit_creation_date              2020-12-01 
_audit_creation_method            'lammps2cif' 
_symmetry_space_group_name_H-M    'P1' 
_symmetry_Int_Tables_number       1 
_symmetry_cell_setting            triclinic 
loop_ 
_symmetry_equiv_pos_as_xyz 
  x,y,z 
_cell_length_a                    55.2822009 
_cell_length_b                    55.17168517748877 
_cell_length_c                    55.20502109481115 
_cell_angle_alpha                 89.99943939404403 
_cell_angle_beta                  89.99879698109633 
_cell_angle_gamma                 89.99905597260107 
loop_ 
_atom_site_label 
_atom_site_type_symbol 
_atom_site_fract_x 
_atom_site_fract_y 
_atom_site_fract_z 
_atom_site_charge 
O1          O  0.85992039  0.47648934  0.82646431    -0.72600
O2          O  0.82561257  0.52514224  0.86222033    -0.72600
O3          O  0.86012698  0.52552308  0.82726348    -0.72700
O4          O  0.82539388  0.47606311  0.86151897    -0.72700
O5          O  0.85416148  0.47554679  0.88991967    -0.72700
O6          O  0.88884717  0.52495540  0.85571609    -0.72700
O7          O  0.85434314  0.52460330  0.89065943    -0.72600
O8          O  0.88865773  0.47595075  0.85489413    -0.72700
Ni9        Ni  0.84172303  0.50081639  0.84335058     1.25400
Ni10       Ni  0.87252637  0.50023467  0.87382128     1.25400
C11         C  0.88000500  0.46845077  0.83473544     0.89600
C12         C  0.83433786  0.53275307  0.88229866     0.89500
C13         C  0.88023411  0.53318171  0.83583804     0.89500
C14         C  0.83405085  0.46785626  0.88140123     0.89700
O15         O  0.67637973  0.67927173  0.00875969    -0.72600
O16         O  0.71104194  0.64510665  0.05826303    -0.72600
O17         O  0.67634437  0.67994452  0.05778873    -0.72700
O18         O  0.71103334  0.64448770  0.00921048    -0.72700
O19         O  0.73963381  0.67307596  0.00882754    -0.72700
O20         O  0.70491026  0.70856295  0.05743362    -0.72700
O21         O  0.73963816  0.67369535  0.05791392    -0.72600
O22         O  0.70495223  0.70788791  0.00836376    -0.72700
Ni23       Ni  0.69268033  0.66117759  0.03352632     1.25400
Ni24       Ni  0.72331591  0.69183104  0.03312937     1.25400
C25         C  0.68494716  0.69919881  0.00056351     0.89600
C26         C  0.73106235  0.65374688  0.06607148     0.89500
C27         C  0.68487270  0.70011456  0.06542338     0.89500
C28         C  0.73101394  0.65296770  0.00113380     0.89700
O29         O  0.55707489  0.82146722  0.88853015    -0.72600
O30         O  0.50864192  0.85593207  0.85269180    -0.72600
O31         O  0.50813686  0.82117746  0.88756383    -0.72700
O32         O  0.55758557  0.85618937  0.85376338    -0.72700
O33         O  0.55835471  0.82755706  0.82517566    -0.72700
O34         O  0.50882948  0.79247419  0.85905254    -0.72700
O35         O  0.50935303  0.82728554  0.82412236    -0.72600
O36         O  0.55782792  0.79279845  0.85997834    -0.72700
Ni37       Ni  0.53281973  0.83971415  0.87165165     1.25400
Ni38       Ni  0.53360580  0.80899592  0.84104918     1.25400
C39         C  0.56528733  0.80146796  0.88014489     0.89600
C40         C  0.50122101  0.84733897  0.83247762     0.89500
C41         C  0.50057519  0.80100744  0.87898023     0.89500
C42         C  0.56596986  0.84765006  0.83391725     0.89700
O43         O  0.70541474  0.97599692  0.74040173    -0.72600
O44         O  0.74139309  0.02440161  0.70592188    -0.72600
O45         O  0.70620803  0.02508183  0.74032868    -0.72700
O46         O  0.74053698  0.97531823  0.70599132    -0.72700
O47         O  0.71228027  0.97577120  0.67708367    -0.72700
O48         O  0.67800493  0.02546789  0.71136842    -0.72700
O49         O  0.71314304  0.02480447  0.67700623    -0.72600
O50         O  0.67718557  0.97642845  0.71146391    -0.72700
Ni51       Ni  0.72440440  0.00018769  0.72420462     1.25400
Ni52       Ni  0.69414466  0.00063801  0.69319868     1.25400
C53         C  0.68537611  0.96840696  0.73161171     0.89600
C54         C  0.73321001  0.03237490  0.68574844     0.89500
C55         C  0.68639867  0.03325963  0.73151911     0.89500
C56         C  0.73207510  0.96754481  0.68584938     0.89700
O57         O  0.00887494  0.70616713  0.70607316    -0.72600
O58         O  0.05774280  0.67143987  0.74115107    -0.72600
O59         O  0.05795243  0.70597522  0.70603849    -0.72700
O60         O  0.00877273  0.67164304  0.74109232    -0.72700
O61         O  0.00868777  0.64280808  0.71269612    -0.72700
O62         O  0.05779816  0.67711444  0.67767902    -0.72700
O63         O  0.05763579  0.64259911  0.71276905    -0.72600
O64         O  0.00873652  0.67732941  0.67769074    -0.72700
Ni65       Ni  0.03334712  0.68985139  0.72459652     1.25400
Ni66       Ni  0.03321905  0.65893967  0.69418270     1.25400
C67         C  0.00084017  0.69743621  0.68615462     0.89600
C68         C  0.06550518  0.65124389  0.73279606     0.89500
C69         C  0.06585008  0.69717035  0.68608925     0.89500
C70         C  0.00081178  0.65155830  0.73265934     0.89700
O71         O  0.88993298  0.82121507  0.50915210    -0.72600
O72         O  0.85552962  0.85639745  0.55815560    -0.72600
O73         O  0.89041977  0.82172944  0.55821834    -0.72700
O74         O  0.85505390  0.85585585  0.50912318    -0.72700
O75         O  0.82659460  0.82713585  0.50966438    -0.72700
O76         O  0.86197993  0.79299424  0.55880471    -0.72700
O77         O  0.82707174  0.82767599  0.55873625    -0.72600
O78         O  0.86151187  0.79245690  0.50970956    -0.72700
Ni79       Ni  0.87375167  0.83982360  0.53364026     1.25400
Ni80       Ni  0.84326970  0.80902982  0.53425004     1.25400
C81         C  0.88141688  0.80103769  0.50152854     0.89600
C82         C  0.83560753  0.84786343  0.56632814     0.89500
C83         C  0.88202519  0.80173718  0.56645733     0.89500
C84         C  0.83499823  0.84714739  0.50147807     0.89700
O85         O  0.50860374  0.17278847  0.82543114    -0.72600
O86         O  0.55761718  0.20713951  0.86074763    -0.72600
O87         O  0.55757076  0.17281004  0.82540420    -0.72700
O88         O  0.50860611  0.20714386  0.86076471    -0.72700
O89         O  0.50863836  0.17811562  0.88895484    -0.72700
O90         O  0.55755932  0.14379123  0.85360749    -0.72700
O91         O  0.55761134  0.17808497  0.88891071    -0.72600
O92         O  0.50864388  0.14379155  0.85365756    -0.72700
Ni93       Ni  0.53309520  0.19101929  0.84207601     1.25400
Ni94       Ni  0.53311047  0.15991278  0.87229127     1.25400
C95         C  0.50079470  0.15256642  0.83369056     0.89600
C96         C  0.56550389  0.19827730  0.88067580     0.89500
C97         C  0.56541650  0.15260101  0.83365464     0.89500
C98         C  0.50075694  0.19831604  0.88071882     0.89700
O99         O  0.67637481  0.32158415  0.05813844    -0.72600
O100        O  0.71085030  0.35663951  0.00912023    -0.72600
O101        O  0.67620447  0.32171784  0.00904821    -0.72700
O102        O  0.71098245  0.35644250  0.05811951    -0.72700
O103        O  0.73964721  0.32791901  0.05796869    -0.72700
O104        O  0.70483421  0.29316665  0.00885310    -0.72700
O105        O  0.73951232  0.32811334  0.00892595    -0.72600
O106        O  0.70499525  0.29301957  0.05799144    -0.72700
Ni107      Ni  0.69257379  0.34010599  0.03360262     1.25400
Ni108      Ni  0.72327115  0.30951839  0.03341680     1.25400
C109        C  0.68502889  0.30157885  0.06605178     0.89600
C110        C  0.73091228  0.34821676  0.00118757     0.89500
C111        C  0.68476443  0.30170661  0.00103252     0.89500
C112        C  0.73104765  0.34792829  0.06594927     0.89700
O113        O  0.82544847  0.47663594  0.20490388    -0.72600
O114        O  0.86066457  0.52529409  0.23977266    -0.72600
O115        O  0.82589117  0.52573109  0.20504794    -0.72700
O116        O  0.86026199  0.47619537  0.23962566    -0.72700
O117        O  0.88875034  0.47605687  0.21094320    -0.72700
O118        O  0.85442097  0.52556995  0.17640601    -0.72700
O119        O  0.88918463  0.52513425  0.21111817    -0.72600
O120        O  0.85395938  0.47649553  0.17624202    -0.72700
Ni121      Ni  0.84204382  0.50096838  0.22336683     1.25400
Ni122      Ni  0.87260196  0.50080623  0.19265114     1.25400
C123        C  0.83389528  0.46872317  0.18481831     0.89600
C124        C  0.88071639  0.53307405  0.23118522     0.89500
C125        C  0.83449579  0.53364395  0.18502458     0.89500
C126        C  0.88018521  0.46813541  0.23097557     0.89700
O127        O  0.00890889  0.67754511  0.39009591    -0.72600
O128        O  0.05708067  0.64245001  0.35447375    -0.72600
O129        O  0.05786919  0.67687561  0.38961100    -0.72700
O130        O  0.00811394  0.64311422  0.35501774    -0.72700
O131        O  0.00818730  0.67200598  0.32667912    -0.72700
O132        O  0.05798013  0.70581340  0.36132144    -0.72700
O133        O  0.05718347  0.67136299  0.32616210    -0.72600
O134        O  0.00898195  0.70646347  0.36178862    -0.72700
Ni135      Ni  0.03299447  0.65896181  0.37331102     1.25400
Ni136      Ni  0.03309170  0.68995065  0.34296740     1.25400
C137        C  0.00115722  0.69777373  0.38180968     0.89600
C138        C  0.06489828  0.65111575  0.33443919     0.89500
C139        C  0.06592809  0.69692706  0.38120855     0.89500
C140        C  0.00010911  0.65198662  0.33515947     0.89700
O141        O  0.20599720  0.79088659  0.50894499    -0.72600
O142        O  0.24109875  0.82589324  0.55765371    -0.72600
O143        O  0.20665556  0.79067728  0.55801858    -0.72700
O144        O  0.24044011  0.82608386  0.50859754    -0.72700
O145        O  0.21158372  0.85439940  0.50910766    -0.72700
O146        O  0.17783392  0.81902940  0.55849735    -0.72700
O147        O  0.21223091  0.85420453  0.55811431    -0.72600
O148        O  0.17716903  0.81923799  0.50946788    -0.72700
Ni149      Ni  0.22458177  0.80736066  0.53328718     1.25400
Ni150      Ni  0.19367218  0.83772337  0.53381679     1.25400
C151        C  0.18578170  0.79929060  0.50136968     0.89600
C152        C  0.23247716  0.84588073  0.56567068     0.89500
C153        C  0.18663967  0.79900243  0.56620401     0.89500
C154        C  0.23162271  0.84612920  0.50093433     0.89700
O155        O  0.38992723  0.97550811  0.70994457    -0.72600
O156        O  0.35549724  0.02478507  0.67511652    -0.72600
O157        O  0.39025714  0.02457246  0.70989175    -0.72700
O158        O  0.35518382  0.97572307  0.67519018    -0.72700
O159        O  0.32661910  0.97589697  0.70379600    -0.72700
O160        O  0.36171961  0.02480238  0.73852479    -0.72700
O161        O  0.32693893  0.02499451  0.70372435    -0.72600
O162        O  0.36140588  0.97569103  0.73859067    -0.72700
Ni163      Ni  0.37373741  0.00014140  0.69151673     1.25400
Ni164      Ni  0.34314512  0.00035781  0.72219123     1.25400
C165        C  0.38136622  0.96764712  0.73000303     0.89600
C166        C  0.33550677  0.03280603  0.68364154     0.89500
C167        C  0.38179037  0.03255457  0.72993884     0.89500
C168        C  0.33511613  0.96794248  0.68374285     0.89700
O169        O  0.70647460  0.02424613  0.32627753    -0.72600
O170        O  0.74189181  0.97561720  0.36108271    -0.72600
O171        O  0.70721103  0.97514491  0.32619171    -0.72700
O172        O  0.74114965  0.02470281  0.36119727    -0.72700
O173        O  0.71250128  0.02420680  0.38971419    -0.72700
O174        O  0.67860220  0.97469758  0.35474843    -0.72700
O175        O  0.71324097  0.97516284  0.38959870    -0.72600
O176        O  0.67785193  0.02375556  0.35482022    -0.72700
Ni177      Ni  0.72521114  0.99995112  0.34265917     1.25400
Ni178      Ni  0.69452564  0.99944297  0.37323775     1.25400
C179        C  0.68630808  0.03182017  0.33479752     0.89600
C180        C  0.73339181  0.96754813  0.38108855     0.89500
C181        C  0.68728627  0.96693748  0.33470575     0.89500
C182        C  0.73245573  0.03239149  0.38127150     0.89700
O183        O  0.50850949  0.82144212  0.17849874    -0.72600
O184        O  0.55719686  0.85658593  0.21335859    -0.72600
O185        O  0.55746942  0.82195151  0.17845000    -0.72700
O186        O  0.50820512  0.85613881  0.21340593    -0.72700
O187        O  0.50848213  0.82743451  0.24192318    -0.72700
O188        O  0.55781915  0.79319289  0.20691342    -0.72700
O189        O  0.55752632  0.82787482  0.24186922    -0.72600
O190        O  0.50879708  0.79269573  0.20697411    -0.72700
Ni191      Ni  0.53282648  0.84005536  0.19491713     1.25400
Ni192      Ni  0.53315914  0.80926728  0.22545077     1.25400
C193        C  0.50083075  0.80125319  0.18694798     0.89600
C194        C  0.56526663  0.84800652  0.23332867     0.89500
C195        C  0.56559083  0.80193802  0.18688645     0.89500
C196        C  0.50041484  0.84746740  0.23344349     0.89700
O197        O  0.17687769  0.47447356  0.85694860    -0.72600
O198        O  0.21122367  0.52378427  0.89171468    -0.72600
O199        O  0.17632843  0.52350085  0.85710687    -0.72700
O200        O  0.21179654  0.47473158  0.89156494    -0.72700
O201        O  0.24023248  0.47511080  0.86283627    -0.72700
O202        O  0.20472915  0.52394306  0.82834268    -0.72700
O203        O  0.23966604  0.52421890  0.86299075    -0.72600
O204        O  0.20526501  0.47485556  0.82816792    -0.72700
Ni205      Ni  0.19304717  0.49910077  0.87535897     1.25400
Ni206      Ni  0.22350132  0.49954034  0.84454923     1.25400
C207        C  0.18533956  0.46676984  0.83679317     0.89600
C208        C  0.23110638  0.53196329  0.88310259     0.89500
C209        C  0.18465455  0.53157714  0.83703579     0.89500
C210        C  0.23188341  0.46708816  0.88292982     0.89700
O211        O  0.36184511  0.70772695  0.00890213    -0.72600
O212        O  0.32675983  0.67303877  0.05791558    -0.72600
O213        O  0.36186001  0.70751048  0.05800831    -0.72700
O214        O  0.32666926  0.67325332  0.00884145    -0.72700
O215        O  0.35495192  0.64435384  0.00868488    -0.72700
O216        O  0.39012099  0.67858945  0.05784556    -0.72700
O217        O  0.35506278  0.64415693  0.05770354    -0.72600
O218        O  0.39008871  0.67879164  0.00878342    -0.72700
Ni219      Ni  0.34326938  0.69142791  0.03341440     1.25400
Ni220      Ni  0.37356649  0.66044543  0.03324078     1.25400
C221        C  0.38178259  0.69898002  0.00095937     0.89600
C222        C  0.33515072  0.65286079  0.06570566     0.89500
C223        C  0.38177871  0.69868321  0.06588379     0.89500
C224        C  0.33496909  0.65310593  0.00089088     0.89700
O225        O  0.21189382  0.47553505  0.17632944    -0.72600
O226        O  0.17710935  0.52473645  0.21076572    -0.72600
O227        O  0.21204150  0.52457186  0.17619938    -0.72700
O228        O  0.17703788  0.47564101  0.21095961    -0.72700
O229        O  0.20548235  0.47568490  0.23968567    -0.72700
O230        O  0.24045015  0.52461483  0.20496284    -0.72700
O231        O  0.20549487  0.52480068  0.23955039    -0.72600
O232        O  0.24034987  0.47555870  0.20504889    -0.72700
Ni233      Ni  0.19349710  0.50012217  0.19253853     1.25400
Ni234      Ni  0.22396023  0.50016745  0.22334967     1.25400
C235        C  0.23186867  0.46763882  0.18497647     0.89600
C236        C  0.18554570  0.53271865  0.23082179     0.89500
C237        C  0.23204663  0.53244435  0.18483046     0.89500
C238        C  0.18551362  0.46774902  0.23104884     0.89700
O239        O  0.36275433  0.29285526  0.05925154    -0.72600
O240        O  0.32728017  0.32704235  0.01027021    -0.72600
O241        O  0.36231915  0.29247283  0.01014886    -0.72700
O242        O  0.32778487  0.32735954  0.05931863    -0.72700
O243        O  0.35615650  0.35617648  0.05884951    -0.72700
O244        O  0.39065225  0.32132018  0.00970536    -0.72700
O245        O  0.35565278  0.35585332  0.00984374    -0.72600
O246        O  0.39110818  0.32168824  0.05878119    -0.72700
Ni247      Ni  0.34402262  0.30888594  0.03475844     1.25400
Ni248      Ni  0.37441287  0.33978306  0.03427038     1.25400
C249        C  0.38272957  0.30167967  0.06697322     0.89600
C250        C  0.33559599  0.34714059  0.00221011     0.89500
C251        C  0.38217987  0.30116367  0.00197357     0.89500
C252        C  0.33627983  0.34752595  0.06699796     0.89700
O253        O  0.50899808  0.20752422  0.20769875    -0.72600
O254        O  0.55865699  0.17354928  0.24242889    -0.72600
O255        O  0.55799172  0.20813236  0.20736435    -0.72700
O256        O  0.50962140  0.17302481  0.24279597    -0.72700
O257        O  0.50976908  0.14418533  0.21441244    -0.72700
O258        O  0.55809509  0.17929641  0.17897742    -0.72700
O259        O  0.55873567  0.14475825  0.21399196    -0.72600
O260        O  0.50914228  0.17864400  0.17934865    -0.72700
Ni261      Ni  0.53381462  0.19159570  0.22609671     1.25400
Ni262      Ni  0.53394309  0.16068909  0.19567327     1.25400
C263        C  0.50108265  0.19867656  0.18778142     0.89600
C264        C  0.56669561  0.15352134  0.23391319     0.89500
C265        C  0.56583078  0.19951366  0.18731747     0.89500
C266        C  0.50186953  0.15282843  0.23442666     0.89700
O267        O  0.05759166  0.35730431  0.71272337    -0.72600
O268        O  0.00897051  0.32345812  0.67660633    -0.72600
O269        O  0.00866232  0.35789307  0.71174710    -0.72700
O270        O  0.05784067  0.32291113  0.67753118    -0.72700
O271        O  0.05700382  0.29393803  0.70577068    -0.72700
O272        O  0.00774599  0.32899981  0.74006427    -0.72700
O273        O  0.00807693  0.29451673  0.70488117    -0.72600
O274        O  0.05674057  0.32838201  0.74101577    -0.72700
Ni275      Ni  0.03329930  0.34142960  0.69365314     1.25400
Ni276      Ni  0.03236126  0.31042102  0.72396259     1.25400
C277        C  0.06499282  0.34845080  0.73282845     0.89600
C278        C  0.00076346  0.30335238  0.68473481     0.89500
C279        C  0.00026899  0.34924593  0.73154408     0.89500
C280        C  0.06527528  0.30261291  0.68591484     0.89700
O281        O  0.85529474  0.14421313  0.50921834    -0.72600
O282        O  0.88918020  0.17978337  0.55822521    -0.72600
O283        O  0.85454455  0.14493779  0.55822365    -0.72700
O284        O  0.88995930  0.17907696  0.50928816    -0.72700
O285        O  0.86136903  0.20766285  0.50840226    -0.72700
O286        O  0.82588869  0.17345992  0.55745242    -0.72700
O287        O  0.86059982  0.20838551  0.55741897    -0.72600
O288        O  0.82665447  0.17274905  0.50836538    -0.72700
Ni289      Ni  0.87325350  0.16098082  0.53377097     1.25400
Ni290      Ni  0.84258377  0.19159126  0.53287825     1.25400
C291        C  0.83537712  0.15259587  0.50089152     0.89600
C292        C  0.88056287  0.19998666  0.56564164     0.89500
C293        C  0.83440422  0.15353640  0.56574775     0.89500
C294        C  0.88156320  0.19903789  0.50100538     0.89700
O295        O  0.23952569  0.17386745  0.50834200    -0.72600
O296        O  0.20513904  0.20830131  0.55800264    -0.72600
O297        O  0.23978584  0.17329381  0.55746338    -0.72700
O298        O  0.20489463  0.20888167  0.50899484    -0.72700
O299        O  0.17623514  0.18035465  0.50883634    -0.72700
O300        O  0.21108410  0.14481584  0.55725835    -0.72700
O301        O  0.17648041  0.17977426  0.55778158    -0.72600
O302        O  0.21081849  0.14539330  0.50819523    -0.72700
Ni303      Ni  0.22338377  0.19210226  0.53320749     1.25400
Ni304      Ni  0.19264548  0.16155895  0.53301121     1.25400
C305        C  0.23082058  0.15394483  0.50024454     0.89600
C306        C  0.18505753  0.19976873  0.56579817     0.89500
C307        C  0.23117115  0.15318774  0.56519422     0.89500
C308        C  0.18473849  0.20053139  0.50120205     0.89700
O309        O  0.38971491  0.02498474  0.35691459    -0.72600
O310        O  0.35456882  0.97606756  0.39154304    -0.72600
O311        O  0.38977533  0.97588957  0.35721807    -0.72700
O312        O  0.35445615  0.02516852  0.39118989    -0.72700
O313        O  0.32631417  0.02492914  0.36217288    -0.72700
O314        O  0.36161011  0.97563052  0.32822348    -0.72700
O315        O  0.32638461  0.97580592  0.36257084    -0.72600
O316        O  0.36159098  0.02475087  0.32788163    -0.72700
Ni317      Ni  0.37313574  0.00053730  0.37525294     1.25400
Ni318      Ni  0.34296488  0.00027162  0.34417152     1.25400
C319        C  0.38147325  0.03275742  0.33668863     0.89600
C320        C  0.33468154  0.96803936  0.38279012     0.89500
C321        C  0.38151785  0.96780857  0.33711346     0.89500
C322        C  0.33454716  0.03299142  0.38228923     0.89700
O323        O  0.00855421  0.29334562  0.35990736    -0.72600
O324        O  0.05747444  0.32874686  0.32556097    -0.72600
O325        O  0.05749445  0.29415755  0.36059493    -0.72700
O326        O  0.00841519  0.32799789  0.32487979    -0.72700
O327        O  0.00760557  0.35676149  0.35332969    -0.72700
O328        O  0.05660179  0.32298760  0.38898018    -0.72700
O329        O  0.05660665  0.35752911  0.35399102    -0.72600
O330        O  0.00772858  0.32216286  0.38830599    -0.72700
Ni331      Ni  0.03300867  0.31003718  0.34169352     1.25400
Ni332      Ni  0.03209832  0.34089986  0.37214833     1.25400
C333        C  0.00036178  0.30186232  0.37985645     0.89600
C334        C  0.06500785  0.34892521  0.33417063     0.89500
C335        C  0.06488615  0.30296678  0.38073409     0.89500
C336        C  0.00006887  0.34795913  0.33325648     0.89700
C337        C  0.14349190  0.23953562  0.45382251     0.18800
C338        C  0.13729498  0.23010517  0.43108088    -0.10300
C339        C  0.12199273  0.24314608  0.41564741    -0.11100
C340        C  0.11280707  0.26569022  0.42287356     0.20400
C341        C  0.11904965  0.27515082  0.44559303    -0.13200
C342        C  0.13434942  0.26211117  0.46102520    -0.11400
C343        C  0.09661961  0.27889341  0.40723018     0.01400
C344        C  0.08251696  0.28990837  0.39469232    -0.31500
C345        C  0.15880926  0.22586062  0.46994194     0.02700
C346        C  0.17106750  0.21429584  0.48386140    -0.33100
H347        H  0.14417754  0.21263707  0.42534723     0.13800
H348        H  0.11722772  0.23560588  0.39816769     0.13600
H349        H  0.11199220  0.29252108  0.45141807     0.13500
H350        H  0.13893645  0.26955568  0.47859535     0.12500
C351        C  0.26849129  0.11334778  0.45120275     0.18800
C352        C  0.25732167  0.09325098  0.44041891    -0.10300
C353        C  0.27067959  0.07768764  0.42551111    -0.11100
C354        C  0.29529089  0.08212209  0.42129526     0.20400
C355        C  0.30637946  0.10240468  0.43180703    -0.13200
C356        C  0.29301960  0.11797011  0.44671766    -0.11400
C357        C  0.30929827  0.06545343  0.40685462     0.01400
C358        C  0.32095399  0.05094930  0.39536044    -0.31500
C359        C  0.25505505  0.12860756  0.46761201     0.02700
C360        C  0.24394603  0.14062297  0.48212318    -0.33100
H361        H  0.23839804  0.08943188  0.44380098     0.13800
H362        H  0.26190604  0.06204259  0.41753658     0.13600
H363        H  0.32539732  0.10600282  0.42873393     0.13500
H364        H  0.30188517  0.13339688  0.45500498     0.12500
C365        C  0.92309298  0.23645471  0.45260147     0.18800
C366        C  0.91357978  0.25519583  0.43834747    -0.10300
C367        C  0.92868004  0.26825877  0.42272041    -0.11100
C368        C  0.95336503  0.26264692  0.42127026     0.20400
C369        C  0.96284751  0.24383645  0.43544987    -0.13200
C370        C  0.94775758  0.23078286  0.45106683    -0.11400
C371        C  0.96910228  0.27648112  0.40570171     0.01400
C372        C  0.98292779  0.28810982  0.39340351    -0.31500
C373        C  0.90770241  0.22327013  0.46905724     0.02700
C374        C  0.89536963  0.21220927  0.48331612    -0.33100
H375        H  0.89456258  0.25978224  0.43941165     0.13800
H376        H  0.92115108  0.28281121  0.41190048     0.13600
H377        H  0.98190645  0.23937392  0.43454570     0.13500
H378        H  0.95533996  0.21636693  0.46203343     0.12500
C379        C  0.95309731  0.26553472  0.64283327     0.18800
C380        C  0.93757388  0.24806058  0.65273100    -0.10300
C381        C  0.92201734  0.23489200  0.63766337    -0.11100
C382        C  0.92192303  0.23914353  0.61263565     0.20400
C383        C  0.93745059  0.25661682  0.60275186    -0.13200
C384        C  0.95299537  0.26977384  0.61780721    -0.11400
C385        C  0.90627661  0.22533771  0.59698725     0.01400
C386        C  0.89396381  0.21375532  0.58315291    -0.31500
C387        C  0.96928971  0.27896877  0.65824650     0.02700
C388        C  0.98330590  0.29019820  0.67067516    -0.33100
H389        H  0.93754531  0.24458353  0.67204563     0.13800
H390        H  0.91015593  0.22136706  0.64549457     0.13600
H391        H  0.93760021  0.25999782  0.58341780     0.13500
H392        H  0.96496254  0.28318830  0.60994118     0.12500
C393        C  0.14397162  0.23785777  0.61405253     0.18800
C394        C  0.12577577  0.22590723  0.62708831    -0.10300
C395        C  0.11045599  0.23900878  0.64245037    -0.11100
C396        C  0.11324290  0.26414313  0.64486884     0.20400
C397        C  0.13148267  0.27608948  0.63188606    -0.13200
C398        C  0.14680577  0.26298466  0.61651923    -0.11400
C399        C  0.09704178  0.27771543  0.66019743     0.01400
C400        C  0.08292649  0.28908629  0.67241193    -0.31500
C401        C  0.15931735  0.22442455  0.59774984     0.02700
C402        C  0.17152933  0.21313874  0.58355940    -0.33100
H403        H  0.12333587  0.20650288  0.62525633     0.13800
H404        H  0.09636437  0.22958322  0.65230361     0.13600
H405        H  0.13375228  0.29553254  0.63352256     0.13500
H406        H  0.16073060  0.27244364  0.60646500     0.12500
C407        C  0.42219731  0.08139907  0.29856402     0.18800
C408        C  0.43278434  0.10149729  0.30993059    -0.10300
C409        C  0.44817647  0.11687018  0.29688555    -0.11100
C410        C  0.45306518  0.11222388  0.27240034     0.20400
C411        C  0.44227197  0.09227818  0.26098522    -0.13200
C412        C  0.42689388  0.07691737  0.27401952    -0.11400
C413        C  0.46968579  0.12740910  0.25915171     0.01400
C414        C  0.48411425  0.13938328  0.24790347    -0.31500
C415        C  0.40710980  0.06497260  0.31217839     0.02700
C416        C  0.39506275  0.05059652  0.32343461    -0.33100
H417        H  0.42934713  0.10512934  0.32891454     0.13800
H418        H  0.45644952  0.13218771  0.30593512     0.13600
H419        H  0.44595161  0.08845273  0.24208409     0.13500
H420        H  0.41888067  0.06142141  0.26503836     0.12500
C421        C  0.45247090  0.23634354  0.14691531     0.18800
C422        C  0.44376294  0.22598299  0.12544774    -0.10300
C423        C  0.42885002  0.23942559  0.11001172    -0.11100
C424        C  0.42256986  0.26330316  0.11594585     0.20400
C425        C  0.43106752  0.27359661  0.13754145    -0.13200
C426        C  0.44599247  0.26014099  0.15299237    -0.11400
C427        C  0.40796119  0.27733822  0.09951584     0.01400
C428        C  0.39621106  0.28867290  0.08500155    -0.31500
C429        C  0.46871907  0.22285095  0.16221148     0.02700
C430        C  0.48308329  0.21171107  0.17431400    -0.33100
H431        H  0.44871904  0.20763625  0.12051705     0.13800
H432        H  0.42243133  0.23130094  0.09333831     0.13600
H433        H  0.42637604  0.29205863  0.14229294     0.13500
H434        H  0.45269171  0.26836435  0.16950485     0.12500
C435        C  0.29754848  0.38808025  0.11507380     0.18800
C436        C  0.30908052  0.40176373  0.13307446    -0.10300
C437        C  0.29555681  0.41714947  0.14799795    -0.11100
C438        C  0.27044580  0.41892171  0.14499312     0.20400
C439        C  0.25889342  0.40508633  0.12712454    -0.13200
C440        C  0.27241344  0.38970349  0.11220587    -0.11400
C441        C  0.25664889  0.43540821  0.15976844     0.01400
C442        C  0.24523814  0.44978445  0.17161768    -0.31500
C443        C  0.31153306  0.37300511  0.09902584     0.02700
C444        C  0.32299760  0.36100382  0.08482295    -0.33100
H445        H  0.32850529  0.40072802  0.13539755     0.13800
H446        H  0.30469412  0.42782618  0.16170551     0.13600
H447        H  0.23951023  0.40636677  0.12458033     0.13500
H448        H  0.26331330  0.37927603  0.09828258     0.12500
C449        C  0.11460462  0.38939742  0.29717138     0.18800
C450        C  0.12725326  0.38018835  0.27717198    -0.10300
C451        C  0.14262971  0.39529773  0.26380297    -0.11100
C452        C  0.14541644  0.41968295  0.27038199     0.20400
C453        C  0.13304886  0.42876362  0.29059324    -0.13200
C454        C  0.11769500  0.41367717  0.30394166    -0.11400
C455        C  0.16033366  0.43564990  0.25609461     0.01400
C456        C  0.17211727  0.44988884  0.24442064    -0.31500
C457        C  0.09784436  0.37428115  0.31029322     0.02700
C458        C  0.08312812  0.36236580  0.32120979    -0.33100
H459        H  0.12498898  0.36144519  0.27173812     0.13800
H460        H  0.15207543  0.38807227  0.24821115     0.13600
H461        H  0.13503887  0.44758972  0.29584914     0.13500
H462        H  0.10800367  0.42101588  0.31933109     0.12500
C463        C  0.29764868  0.61153041  0.11418300     0.18800
C464        C  0.27871528  0.62071918  0.12836178    -0.10300
C465        C  0.26554570  0.60524067  0.14353861    -0.11100
C466        C  0.27124976  0.58050558  0.14459623     0.20400
C467        C  0.29033610  0.57138461  0.13059980    -0.13200
C468        C  0.30349065  0.58684484  0.11544158    -0.11400
C469        C  0.25722876  0.56433125  0.15953527     0.01400
C470        C  0.24558189  0.55014525  0.17140225    -0.31500
C471        C  0.31073978  0.62717927  0.09788947     0.02700
C472        C  0.32180510  0.63942193  0.08355175    -0.33100
H473        H  0.27400121  0.63976817  0.12751701     0.13800
H474        H  0.25081385  0.61249288  0.15424666     0.13600
H475        H  0.29489881  0.55228775  0.13123502     0.13500
H476        H  0.31805291  0.57952033  0.10454713     0.12500
C477        C  0.14433845  0.41855920  0.79859118     0.18800
C478        C  0.12533987  0.40643427  0.81024488    -0.10300
C479        C  0.10989934  0.39130515  0.79701820    -0.11100
C480        C  0.11337331  0.38822269  0.77205878     0.20400
C481        C  0.13246971  0.40021600  0.76043333    -0.13200
C482        C  0.14791128  0.41534791  0.77366122    -0.11400
C483        C  0.09694443  0.37334992  0.75828020     0.01400
C484        C  0.08267358  0.36157257  0.74666146    -0.31500
C485        C  0.15969424  0.43479919  0.81207524     0.02700
C486        C  0.17187038  0.44900627  0.82337343    -0.33100
H487        H  0.12233576  0.40884778  0.82949852     0.13800
H488        H  0.09515230  0.38220902  0.80618703     0.13600
H489        H  0.13528003  0.39804600  0.74112144     0.13500
H490        H  0.16246603  0.42469072  0.76443572     0.12500
C491        C  0.26873300  0.58132222  0.92335999     0.18800
C492        C  0.29132634  0.58998652  0.91574426    -0.10300
C493        C  0.30467227  0.60555616  0.93066870    -0.11100
C494        C  0.29549578  0.61254222  0.95328773     0.20400
C495        C  0.27279508  0.60406678  0.96078431    -0.13200
C496        C  0.25945855  0.58850662  0.94587004    -0.11400
C497        C  0.30961881  0.62774223  0.96915647     0.01400
C498        C  0.32132477  0.63973764  0.98320095    -0.31500
C499        C  0.25536050  0.56456782  0.90843867     0.02700
C500        C  0.24424637  0.54998636  0.89652321    -0.33100
H501        H  0.29871574  0.58451927  0.89841412     0.13800
H502        H  0.32222845  0.61192686  0.92469424     0.13600
H503        H  0.26553399  0.60927343  0.97824964     0.13500
H504        H  0.24204261  0.58188771  0.95199221     0.12500
C505        C  0.29724785  0.38800907  0.95396342     0.18800
C506        C  0.30764929  0.40956652  0.94548582    -0.10300
C507        C  0.29448810  0.42497626  0.93026235    -0.11100
C508        C  0.27083278  0.41892845  0.92341232     0.20400
C509        C  0.26047511  0.39728857  0.93175865    -0.13200
C510        C  0.27364573  0.38186819  0.94699503    -0.11400
C511        C  0.25704128  0.43522267  0.90835005     0.01400
C512        C  0.24552444  0.44942350  0.89634791    -0.31500
C513        C  0.31060315  0.37259741  0.97028241     0.02700
C514        C  0.32196199  0.36049026  0.98451045    -0.33100
H515        H  0.32584937  0.41455562  0.95080585     0.13800
H516        H  0.30267352  0.44167926  0.92400291     0.13600
H517        H  0.24217613  0.39244534  0.92665508     0.13500
H518        H  0.26537434  0.36529816  0.95348694     0.12500
C519        C  0.42202480  0.73677072  0.11489830     0.18800
C520        C  0.43186301  0.72568228  0.13551654    -0.10300
C521        C  0.44706777  0.73882326  0.15098959    -0.11100
C522        C  0.45250785  0.76312287  0.14592915     0.20400
C523        C  0.44246688  0.77426136  0.12544714    -0.13200
C524        C  0.42727586  0.76113192  0.10998766    -0.11400
C525        C  0.46889792  0.77645783  0.16128631     0.01400
C526        C  0.48315808  0.78775491  0.17341480    -0.31500
C527        C  0.40715193  0.72304702  0.09838352     0.02700
C528        C  0.39527100  0.71178628  0.08388562    -0.33100
H529        H  0.42799126  0.70684764  0.13948132     0.13800
H530        H  0.45476325  0.72998409  0.16673086     0.13600
H531        H  0.44657695  0.79300646  0.12129890     0.13500
H532        H  0.41983630  0.76989551  0.09408025     0.12500
C533        C  0.42254762  0.91912207  0.29945500     0.18800
C534        C  0.41249679  0.90190024  0.28371238    -0.10300
C535        C  0.42758695  0.88652390  0.27029954    -0.11100
C536        C  0.45278851  0.88830407  0.27257080     0.20400
C537        C  0.46279043  0.90543841  0.28840730    -0.13200
C538        C  0.44772884  0.92078508  0.30179484    -0.11400
C539        C  0.46851121  0.87290760  0.25849209     0.01400
C540        C  0.48259628  0.86082149  0.24693004    -0.31500
C541        C  0.40719746  0.93544407  0.31288296     0.02700
C542        C  0.39511194  0.94984623  0.32405310    -0.33100
H543        H  0.39306509  0.90046772  0.28170524     0.13800
H544        H  0.41962681  0.87337091  0.25808602     0.13600
H545        H  0.48222492  0.90702360  0.29030066     0.13500
H546        H  0.45572558  0.93405249  0.31386118     0.12500
C547        C  0.77054183  0.08089123  0.42211122     0.18800
C548        C  0.75885157  0.09423836  0.44026380    -0.10300
C549        C  0.77219381  0.10951720  0.45545954    -0.11100
C550        C  0.79730354  0.11154077  0.45260224     0.20400
C551        C  0.80898508  0.09831665  0.43434816    -0.13200
C552        C  0.79563650  0.08303144  0.41914456    -0.11400
C553        C  0.81108257  0.12666986  0.46881630     0.01400
C554        C  0.82232933  0.13883629  0.48307468    -0.31500
C555        C  0.75689792  0.06453928  0.40699713     0.02700
C556        C  0.74560536  0.05025205  0.39489730    -0.33100
H557        H  0.73948616  0.09267758  0.44279686     0.13800
H558        H  0.76296835  0.11958537  0.46956030     0.13600
H559        H  0.82839118  0.09966175  0.43201089     0.13500
H560        H  0.80489546  0.07273866  0.40522979     0.12500
C561        C  0.64666791  0.91864725  0.29617126     0.18800
C562        C  0.64164647  0.89521911  0.30463150    -0.10300
C563        C  0.62582685  0.88014241  0.29174778    -0.11100
C564        C  0.61494856  0.88842674  0.27034771     0.20400
C565        C  0.62019167  0.91174955  0.26177455    -0.13200
C566        C  0.63599090  0.92680532  0.27464006    -0.11400
C567        C  0.59796514  0.87333855  0.25745867     0.01400
C568        C  0.58325696  0.86142318  0.24651712    -0.31500
C569        C  0.66206575  0.93467007  0.30989572     0.02700
C570        C  0.67408165  0.94895763  0.32128187    -0.33100
H571        H  0.64973188  0.88872322  0.32129114     0.13800
H572        H  0.62189322  0.86216660  0.29858593     0.13600
H573        H  0.61187410  0.91838356  0.24528393     0.13500
H574        H  0.63966620  0.94489325  0.26794821     0.12500
C575        C  0.64584551  0.08076861  0.29684940     0.18800
C576        C  0.64277716  0.07796134  0.27180165    -0.10300
C577        C  0.62769455  0.09379393  0.25898156    -0.11100
C578        C  0.61559832  0.11252143  0.27113472     0.20400
C579        C  0.61884032  0.11546540  0.29613935    -0.13200
C580        C  0.63392458  0.09963398  0.30895940    -0.11400
C581        C  0.59920130  0.12810336  0.25811251     0.01400
C582        C  0.58474822  0.14027865  0.24714262    -0.31500
C583        C  0.66072328  0.06397098  0.31020326     0.02700
C584        C  0.67268254  0.04953673  0.32145622    -0.33100
H585        H  0.65184319  0.06341427  0.26224305     0.13800
H586        H  0.62525601  0.09127332  0.23967032     0.13600
H587        H  0.60951324  0.12980899  0.30575139     0.13500
H588        H  0.63610361  0.10195306  0.32832480     0.12500
C589        C  0.29641315  0.08111696  0.64345120     0.18800
C590        C  0.30554804  0.10391033  0.63694212    -0.10300
C591        C  0.29202798  0.11928298  0.62195649    -0.11100
C592        C  0.26929890  0.11194715  0.61339539     0.20400
C593        C  0.26008002  0.08925284  0.62010206    -0.13200
C594        C  0.27358883  0.07389296  0.63507462    -0.11400
C595        C  0.25575245  0.12730395  0.59715526     0.01400
C596        C  0.24448560  0.13949319  0.58290628    -0.31500
C597        C  0.31058742  0.06489187  0.65824341     0.02700
C598        C  0.32216706  0.05063701  0.67012808    -0.33100
H599        H  0.32318263  0.10969560  0.64326063     0.13800
H600        H  0.29938713  0.13674953  0.61685692     0.13600
H601        H  0.24256882  0.08333549  0.61356098     0.13500
H602        H  0.26633914  0.05631066  0.63993512     0.12500
C603        C  0.29729109  0.91929000  0.64287282     0.18800
C604        C  0.30134839  0.91932978  0.61781610    -0.10300
C605        C  0.28834258  0.90362440  0.60278097    -0.11100
C606        C  0.27118970  0.88777080  0.61269590     0.20400
C607        C  0.26717379  0.88765395  0.63777087    -0.13200
C608        C  0.28019737  0.90337929  0.65282570    -0.11400
C609        C  0.25747131  0.87202428  0.59702138     0.01400
C610        C  0.24602147  0.85959556  0.58315299    -0.31500
C611        C  0.31049452  0.93579794  0.65820190     0.02700
C612        C  0.32169531  0.95015807  0.67029571    -0.33100
H613        H  0.31447436  0.93156534  0.60990337     0.13800
H614        H  0.29156994  0.90393166  0.58341680     0.13600
H615        H  0.25392518  0.87553010  0.64564069     0.13500
H616        H  0.27686873  0.90320862  0.67217309     0.12500
C617        C  0.29607639  0.91906225  0.42273937     0.18800
C618        C  0.27107876  0.92227834  0.42554371    -0.10300
C619        C  0.25781996  0.90666682  0.44049975    -0.11100
C620        C  0.26946678  0.88772004  0.45275973     0.20400
C621        C  0.29443477  0.88437052  0.44979572    -0.13200
C622        C  0.30769882  0.89998821  0.43483351    -0.11400
C623        C  0.25594480  0.87224282  0.46893037     0.01400
C624        C  0.24472781  0.85993159  0.48312784    -0.31500
C625        C  0.30983668  0.93569899  0.40798712     0.02700
C626        C  0.32123576  0.95016184  0.39616309    -0.33100
H627        H  0.26187774  0.93699239  0.41635090     0.13800
H628        H  0.23856509  0.90951252  0.44268926     0.13600
H629        H  0.30368275  0.86984344  0.45923413     0.13500
H630        H  0.32700693  0.89733696  0.43288119     0.12500
C631        C  0.14525621  0.76103873  0.45277479     0.18800
C632        C  0.14639913  0.73566194  0.45232934    -0.10300
C633        C  0.13119026  0.72249518  0.43690932    -0.11100
C634        C  0.11476288  0.73464012  0.42185413     0.20400
C635        C  0.11377489  0.76002093  0.42214533    -0.13200
C636        C  0.12897905  0.77318390  0.43756099    -0.11400
C637        C  0.09838741  0.72109287  0.40671471     0.01400
C638        C  0.08396677  0.70994365  0.39467091    -0.31500
C639        C  0.16026189  0.77456916  0.46929828     0.02700
C640        C  0.17225048  0.78589247  0.48364144    -0.33100
H641        H  0.15885584  0.72606547  0.46406012     0.13800
H642        H  0.13205938  0.70287778  0.43690974     0.13600
H643        H  0.10108892  0.76960811  0.41065484     0.13500
H644        H  0.12787477  0.79278781  0.43779477     0.12500
C645        C  0.14464880  0.58132789  0.26863870     0.18800
C646        C  0.12595900  0.59388810  0.25694045    -0.10300
C647        C  0.11038531  0.60880803  0.27026053    -0.11100
C648        C  0.11341375  0.61124877  0.29535306     0.20400
C649        C  0.13226610  0.59889538  0.30700376    -0.13200
C650        C  0.14783805  0.58397686  0.29368492    -0.11400
C651        C  0.09682047  0.62588915  0.30921024     0.01400
C652        C  0.08250068  0.63765437  0.32079957    -0.31500
C653        C  0.15995023  0.56505008  0.25513014     0.02700
C654        C  0.17206660  0.55067245  0.24398013    -0.33100
H655        H  0.12325482  0.59192279  0.23760027     0.13800
H656        H  0.09584929  0.61821959  0.26105306     0.13600
H657        H  0.13476193  0.60059109  0.32639607     0.13500
H658        H  0.16216297  0.57429746  0.30294556     0.12500
C659        C  0.95113715  0.61244999  0.29653268     0.18800
C660        C  0.95518648  0.60914797  0.27169489    -0.10300
C661        C  0.94008272  0.59389215  0.25825361    -0.11100
C662        C  0.92084503  0.58184919  0.26957130     0.20400
C663        C  0.91660401  0.58536953  0.29435933    -0.13200
C664        C  0.93172167  0.60063734  0.30781249    -0.11400
C665        C  0.90600242  0.56530418  0.25591034     0.01400
C666        C  0.89418394  0.55088233  0.24451990    -0.31500
C667        C  0.96745224  0.62723954  0.31051124     0.02700
C668        C  0.98195402  0.63893508  0.32191017    -0.33100
H669        H  0.97017816  0.61811458  0.26280321     0.13800
H670        H  0.94358128  0.59125782  0.23911215     0.13600
H671        H  0.90183247  0.57610540  0.30331509     0.13500
H672        H  0.92846099  0.60298981  0.32703258     0.12500
C673        C  0.95138553  0.38787365  0.29450465     0.18800
C674        C  0.95845562  0.39668113  0.27177415    -0.10300
C675        C  0.94314612  0.41208982  0.25873815    -0.11100
C676        C  0.92065949  0.41880163  0.26834229     0.20400
C677        C  0.91345656  0.40980690  0.29097423    -0.13200
C678        C  0.92878601  0.39437814  0.30402735    -0.11400
C679        C  0.90540746  0.43547152  0.25525295     0.01400
C680        C  0.89345907  0.45005630  0.24418396    -0.31500
C681        C  0.96768892  0.37283720  0.30828408     0.02700
C682        C  0.98210785  0.36102437  0.31970067    -0.33100
H683        H  0.97590459  0.39185139  0.26425395     0.13800
H684        H  0.94894988  0.41897462  0.24130030     0.13600
H685        H  0.89614487  0.41491850  0.29862345     0.13500
H686        H  0.92314463  0.38774949  0.32161596     0.12500
C687        C  0.76893104  0.38874406  0.11457498     0.18800
C688        C  0.75710775  0.40737251  0.12713801    -0.10300
C689        C  0.77024965  0.42291932  0.14223910    -0.11100
C690        C  0.79528942  0.41992553  0.14486001     0.20400
C691        C  0.80707312  0.40113385  0.13250556    -0.13200
C692        C  0.79392930  0.38558540  0.11740070    -0.11400
C693        C  0.80896603  0.43654805  0.15962743     0.01400
C694        C  0.82041048  0.45095940  0.17142077    -0.31500
C695        C  0.75555831  0.37345064  0.09817917     0.02700
C696        C  0.74435827  0.36137303  0.08381036    -0.33100
H697        H  0.73780832  0.41004542  0.12504121     0.13800
H698        H  0.76094420  0.43741934  0.15164665     0.13600
H699        H  0.82642748  0.39867764  0.13433794     0.13500
H700        H  0.80328749  0.37129993  0.10772395     0.12500
C701        C  0.61434898  0.23742306  0.14630264     0.18800
C702        C  0.62361416  0.22649326  0.12535292    -0.10300
C703        C  0.63894951  0.23948922  0.10993380    -0.11100
C704        C  0.64513256  0.26351595  0.11535011     0.20400
C705        C  0.63609085  0.27439393  0.13644602    -0.13200
C706        C  0.62073444  0.26137963  0.15188705    -0.11400
C707        C  0.66005715  0.27714322  0.09880381     0.01400
C708        C  0.67184304  0.28833659  0.08417735    -0.31500
C709        C  0.59780640  0.22421942  0.16161095     0.02700
C710        C  0.58347604  0.21295841  0.17369184    -0.33100
H711        H  0.61877544  0.20800696  0.12080245     0.13800
H712        H  0.64575449  0.23090401  0.09366281     0.13600
H713        H  0.64068303  0.29299033  0.14080392     0.13500
H714        H  0.61365599  0.27005195  0.16799331     0.12500
C715        C  0.45286723  0.11153104  0.79519686     0.18800
C716        C  0.44583368  0.08910663  0.80481405    -0.10300
C717        C  0.43065294  0.07376230  0.79155337    -0.11100
C718        C  0.42241431  0.08074183  0.76858309     0.20400
C719        C  0.42932630  0.10323048  0.75900406    -0.13200
C720        C  0.44452250  0.11859024  0.77227808    -0.11400
C721        C  0.40737155  0.06454661  0.75469920     0.01400
C722        C  0.39534779  0.05031055  0.74327613    -0.31500
C723        C  0.46905805  0.12696148  0.80865423     0.02700
C724        C  0.48317517  0.13912947  0.82006632    -0.33100
H725        H  0.45222571  0.08341283  0.82248244     0.13800
H726        H  0.42549604  0.05640335  0.79911862     0.13600
H727        H  0.42312679  0.10879774  0.74122862     0.13500
H728        H  0.44989153  0.13584263  0.76462219     0.12500
C729        C  0.64398314  0.26282047  0.95307938     0.18800
C730        C  0.62602065  0.24779278  0.96284209    -0.10300
C731        C  0.61086660  0.23444873  0.94754198    -0.11100
C732        C  0.61355623  0.23602415  0.92234932     0.20400
C733        C  0.63160193  0.25095367  0.91254867    -0.13200
C734        C  0.64678231  0.26432077  0.92787500    -0.11400
C735        C  0.59748221  0.22262849  0.90670396     0.01400
C736        C  0.58328492  0.21146291  0.89437764    -0.31500
C737        C  0.65923836  0.27682703  0.96901898     0.02700
C738        C  0.67128732  0.28832852  0.98319893    -0.33100
H739        H  0.62365037  0.24648480  0.98229016     0.13800
H740        H  0.59697749  0.22301894  0.95534556     0.13600
H741        H  0.63384304  0.25236058  0.89309256     0.13500
H742        H  0.66057449  0.27587804  0.92009759     0.12500
C743        C  0.42207905  0.26316742  0.95259545     0.18800
C744        C  0.41970836  0.23792777  0.95089367    -0.10300
C745        C  0.43486236  0.22470825  0.93545274    -0.11100
C746        C  0.45247321  0.23664437  0.92161855     0.20400
C747        C  0.45465195  0.26191677  0.92310758    -0.13200
C748        C  0.43949878  0.27513528  0.93854714    -0.11400
C749        C  0.46877508  0.22293428  0.90649610     0.01400
C750        C  0.48301946  0.21156997  0.89440992    -0.31500
C751        C  0.40723935  0.27665865  0.96933228     0.02700
C752        C  0.39545345  0.28787967  0.98393963    -0.33100
H753        H  0.40637008  0.22846060  0.96169737     0.13800
H754        H  0.43303385  0.20516721  0.93451219     0.13600
H755        H  0.46822164  0.27134916  0.91256465     0.13500
H756        H  0.44155967  0.29463991  0.93974702     0.12500
C757        C  0.95264494  0.73573256  0.42272505     0.18800
C758        C  0.94595247  0.75946622  0.41660935    -0.10300
C759        C  0.93056355  0.77267535  0.43183211    -0.11100
C760        C  0.92178850  0.76221801  0.45324275     0.20400
C761        C  0.92831879  0.73841563  0.45923491    -0.13200
C762        C  0.94369557  0.72521695  0.44402404    -0.11400
C763        C  0.90670514  0.77607251  0.46944237     0.01400
C764        C  0.89475488  0.78754823  0.48370682    -0.31500
C765        C  0.96916523  0.72237503  0.40754991     0.02700
C766        C  0.98350042  0.71113887  0.39546784    -0.33100
H767        H  0.95279847  0.76781567  0.40023198     0.13800
H768        H  0.92570631  0.79109273  0.42703676     0.13600
H769        H  0.92172252  0.73015914  0.47576303     0.13500
H770        H  0.94878729  0.70690638  0.44898443     0.12500
C771        C  0.77119077  0.91852481  0.42157328     0.18800
C772        C  0.75887606  0.90469866  0.43893959    -0.10300
C773        C  0.77169862  0.88917096  0.45433804    -0.11100
C774        C  0.79691922  0.88737409  0.45245871     0.20400
C775        C  0.80920921  0.90099041  0.43490313    -0.13200
C776        C  0.79638307  0.91652462  0.41950196    -0.11400
C777        C  0.81024269  0.87225498  0.46907560     0.01400
C778        C  0.82150003  0.86035817  0.48356239    -0.31500
C779        C  0.75804899  0.93527221  0.40644583     0.02700
C780        C  0.74686392  0.94975849  0.39448435    -0.33100
H781        H  0.73941003  0.90613467  0.44076047     0.13800
H782        H  0.76199741  0.87880694  0.46787734     0.13600
H783        H  0.82871314  0.89981833  0.43332135     0.13500
H784        H  0.80611676  0.92716018  0.40619830     0.12500
C785        C  0.95216871  0.73662175  0.64654751     0.18800
C786        C  0.93066821  0.72655666  0.63758723    -0.10300
C787        C  0.91568340  0.74015472  0.62228524    -0.11100
C788        C  0.92211045  0.76388813  0.61586390     0.20400
C789        C  0.94339838  0.77407304  0.62516149    -0.13200
C790        C  0.95836680  0.76048938  0.64045225    -0.11400
C791        C  0.90736595  0.77748458  0.59910717     0.01400
C792        C  0.89555932  0.78867882  0.58448343    -0.31500
C793        C  0.96836685  0.72228737  0.66120922     0.02700
C794        C  0.98280815  0.71068882  0.67283810    -0.33100
H795        H  0.92568064  0.70812014  0.64212960     0.13800
H796        H  0.89929144  0.73205819  0.61519580     0.13600
H797        H  0.94859569  0.79237535  0.62032005     0.13500
H798        H  0.97494853  0.76846905  0.64722727     0.12500
C799        C  0.14666215  0.76010830  0.61486139     0.18800
C800        C  0.13944762  0.73653894  0.60871780    -0.10300
C801        C  0.12394314  0.72355829  0.62400350    -0.11100
C802        C  0.11553924  0.73405683  0.64553903     0.20400
C803        C  0.12299946  0.75750746  0.65185244    -0.13200
C804        C  0.13851422  0.77049625  0.63655756    -0.11400
C805        C  0.09866908  0.72106221  0.66067595     0.01400
C806        C  0.08395984  0.71018039  0.67265068    -0.31500
C807        C  0.16169006  0.77387338  0.59849355     0.02700
C808        C  0.17350625  0.78539003  0.58412577    -0.33100
H809        H  0.14555755  0.72832035  0.59197372     0.13800
H810        H  0.11827250  0.70547395  0.61888591     0.13600
H811        H  0.11659119  0.76585182  0.66842118     0.13500
H812        H  0.14389961  0.78871716  0.64148898     0.12500
C813        C  0.14346542  0.58004940  0.79925050     0.18800
C814        C  0.11988140  0.58479977  0.80726857    -0.10300
C815        C  0.10472708  0.60007248  0.79387369    -0.11100
C816        C  0.11305330  0.61069434  0.77236740     0.20400
C817        C  0.13671190  0.60612188  0.76445215    -0.13200
C818        C  0.15187683  0.59083839  0.77785657    -0.11400
C819        C  0.09709485  0.62574448  0.75818520     0.01400
C820        C  0.08308109  0.63772706  0.74643328    -0.31500
C821        C  0.15874107  0.56364430  0.81266126     0.02700
C822        C  0.17093616  0.54933158  0.82382556    -0.33100
H823        H  0.11314386  0.57653069  0.82374345     0.13800
H824        H  0.08646476  0.60341864  0.80016162     0.13600
H825        H  0.14334648  0.61418079  0.74783456     0.13500
H826        H  0.17004935  0.58726826  0.77143803     0.12500
C827        C  0.79706711  0.88837845  0.61474818     0.18800
C828        C  0.77194581  0.89033457  0.61191725    -0.10300
C829        C  0.75855858  0.90547762  0.62721659    -0.11100
C830        C  0.77021695  0.91875381  0.64544369     0.20400
C831        C  0.79531007  0.91663954  0.64841348    -0.13200
C832        C  0.80870050  0.90149342  0.63311043    -0.11400
C833        C  0.75657229  0.93512309  0.66053632     0.01400
C834        C  0.74528945  0.94952238  0.67250949    -0.31500
C835        C  0.81093016  0.87345486  0.59840398     0.02700
C836        C  0.82234083  0.86146893  0.58411524    -0.33100
H837        H  0.76274972  0.88034361  0.59773962     0.13800
H838        H  0.73919485  0.90702476  0.62467823     0.13600
H839        H  0.80454556  0.92688336  0.66238296     0.13500
H840        H  0.82810815  0.90019484  0.63543685     0.12500
C841        C  0.64535165  0.08202498  0.76898839     0.18800
C842        C  0.64926312  0.08617054  0.79372939    -0.10300
C843        C  0.63366685  0.10135178  0.80672756    -0.11100
C844        C  0.61407039  0.11246724  0.79505747     0.20400
C845        C  0.61027380  0.10847329  0.77027408    -0.13200
C846        C  0.62586804  0.09329654  0.75727810    -0.11400
C847        C  0.59750099  0.12739894  0.80862649     0.01400
C848        C  0.58315677  0.13928055  0.82006289    -0.31500
C849        C  0.66080771  0.06563187  0.75579050     0.02700
C850        C  0.67298480  0.05124520  0.74471262    -0.33100
H851        H  0.66420744  0.07748680  0.80301118     0.13800
H852        H  0.63674326  0.10423288  0.82588695     0.13600
H853        H  0.59513991  0.11689823  0.76106054     0.13500
H854        H  0.62259930  0.09016240  0.73818946     0.12500
C855        C  0.79741266  0.11191747  0.61432666     0.18800
C856        C  0.78126435  0.12125381  0.63153878    -0.10300
C857        C  0.76861837  0.10553909  0.64692350    -0.11100
C858        C  0.77207046  0.08042561  0.64516215     0.20400
C859        C  0.78836785  0.07112957  0.62808739    -0.13200
C860        C  0.80099654  0.08682236  0.61272437    -0.11400
C861        C  0.75851127  0.06411952  0.66038703     0.01400
C862        C  0.74699462  0.04993734  0.67238793    -0.31500
C863        C  0.81007227  0.12789139  0.59800665     0.02700
C864        C  0.82097510  0.14023338  0.58363018    -0.33100
H865        H  0.77832614  0.14062545  0.63294274     0.13800
H866        H  0.75603880  0.11293246  0.66001902     0.13600
H867        H  0.79116204  0.05174733  0.62651720     0.13500
H868        H  0.81341147  0.07938869  0.59948882     0.12500
C869        C  0.64401463  0.92033176  0.76955413     0.18800
C870        C  0.61906556  0.92464683  0.77056654    -0.10300
C871        C  0.60403599  0.90917781  0.78382151    -0.11100
C872        C  0.61384831  0.88928268  0.79615672     0.20400
C873        C  0.63881177  0.88491856  0.79515214    -0.13200
C874        C  0.65387211  0.90041975  0.78187043    -0.11400
C875        C  0.59816006  0.87353665  0.80981948     0.01400
C876        C  0.58396870  0.86121659  0.82095851    -0.31500
C877        C  0.65938253  0.93653080  0.75605840     0.02700
C878        C  0.67157714  0.95075050  0.74481022    -0.33100
H879        H  0.61123902  0.94000196  0.76115115     0.13800
H880        H  0.58478207  0.91274280  0.78448024     0.13600
H881        H  0.64661202  0.86959392  0.80463722     0.13500
H882        H  0.67313634  0.89692715  0.78124623     0.12500
C883        C  0.42180012  0.91862515  0.76788967     0.18800
C884        C  0.43665569  0.90211184  0.75559025    -0.10300
C885        C  0.45210568  0.88676005  0.76857667    -0.11100
C886        C  0.45278307  0.88783399  0.79393898     0.20400
C887        C  0.43775735  0.90418274  0.80623827    -0.13200
C888        C  0.42231508  0.91952937  0.79325719    -0.11400
C889        C  0.46933742  0.87270320  0.80732470     0.01400
C890        C  0.48362359  0.86072295  0.81874280    -0.31500
C891        C  0.40666668  0.93517799  0.75449596     0.02700
C892        C  0.39469676  0.94966519  0.74330972    -0.33100
H893        H  0.43648709  0.90129370  0.73598127     0.13800
H894        H  0.46367908  0.87425427  0.75885138     0.13600
H895        H  0.43816310  0.90523809  0.82583263     0.13500
H896        H  0.41098835  0.93226580  0.80297469     0.12500
C897        C  0.42261352  0.73648967  0.95191117     0.18800
C898        C  0.44388548  0.72589139  0.94303219    -0.10300
C899        C  0.45892705  0.73884011  0.92726184    -0.11100
C900        C  0.45280006  0.76247563  0.92025183     0.20400
C901        C  0.43146715  0.77304232  0.92903345    -0.13200
C902        C  0.41641683  0.76008607  0.94481300    -0.11400
C903        C  0.46876032  0.77606648  0.90465004     0.01400
C904        C  0.48283228  0.78744791  0.89237176    -0.31500
C905        C  0.40747343  0.72332583  0.96866030     0.02700
C906        C  0.39537051  0.71223869  0.98312182    -0.33100
H907        H  0.44892457  0.70770084  0.94843220     0.13800
H908        H  0.47541484  0.73050056  0.92069182     0.13600
H909        H  0.42657581  0.79133250  0.92384080     0.13500
H910        H  0.40006573  0.76851618  0.95160247     0.12500
C911        C  0.61324004  0.76304193  0.92116722     0.18800
C912        C  0.63785752  0.76896538  0.92263778    -0.10300
C913        C  0.65320032  0.75573308  0.93789064    -0.11100
C914        C  0.64398063  0.73652873  0.95172254     0.20400
C915        C  0.61940939  0.73052542  0.95010272    -0.13200
C916        C  0.60409076  0.74373728  0.93487521    -0.11400
C917        C  0.65945808  0.72333418  0.96806341     0.01400
C918        C  0.67155761  0.71227588  0.98250904    -0.31500
C919        C  0.59719692  0.77693222  0.90598909     0.02700
C920        C  0.58299877  0.78828696  0.89387572    -0.33100
H921        H  0.64512964  0.78387964  0.91215349     0.13800
H922        H  0.67215612  0.76058252  0.93904315     0.13600
H923        H  0.61206180  0.71576451  0.96075325     0.13500
H924        H  0.58509012  0.73901501  0.93392084     0.12500
C925        C  0.76977839  0.61380580  0.11477979     0.18800
C926        C  0.79445709  0.60997242  0.11040708    -0.10300
C927        C  0.80781381  0.59461223  0.12550443    -0.11100
C928        C  0.79657528  0.58299148  0.14507086     0.20400
C929        C  0.77195905  0.58704849  0.14963055    -0.13200
C930        C  0.75859348  0.60241743  0.13452292    -0.11400
C931        C  0.81010334  0.56631020  0.15992092     0.01400
C932        C  0.82133211  0.55172527  0.17171693    -0.31500
C933        C  0.75583471  0.62871231  0.09849605     0.02700
C934        C  0.74438939  0.64051619  0.08408834    -0.33100
H935        H  0.80328863  0.61860882  0.09516536     0.13800
H936        H  0.82681263  0.59156803  0.12174818     0.13600
H937        H  0.76305258  0.57811546  0.16465574     0.13500
H938        H  0.73950825  0.60517652  0.13805009     0.12500
C939        C  0.61409858  0.76433788  0.14563502     0.18800
C940        C  0.63213413  0.77642268  0.13248392    -0.10300
C941        C  0.64727872  0.76345952  0.11680623    -0.11100
C942        C  0.64446399  0.73833966  0.11419747     0.20400
C943        C  0.62655116  0.72624690  0.12748731    -0.13200
C944        C  0.61141811  0.73920002  0.14315272    -0.11400
C945        C  0.65949904  0.72503382  0.09749290     0.01400
C946        C  0.67144731  0.71369773  0.08311189    -0.31500
C947        C  0.59784600  0.77775664  0.16106116     0.02700
C948        C  0.58351409  0.78883859  0.17329941    -0.33100
H949        H  0.63433194  0.79587226  0.13417300     0.13800
H950        H  0.66100463  0.77302625  0.10658646     0.13600
H951        H  0.62414506  0.70684248  0.12557772     0.13500
H952        H  0.59749822  0.72966508  0.15313661     0.12500
C953        C  0.95178391  0.61178981  0.77099125     0.18800
C954        C  0.95107255  0.61345417  0.79631253    -0.10300
C955        C  0.93564104  0.59838792  0.80960949    -0.11100
C956        C  0.92084989  0.58159542  0.79764160     0.20400
C957        C  0.92139106  0.58009488  0.77230846    -0.13200
C958        C  0.93682007  0.59515837  0.75901370    -0.11400
C959        C  0.90572977  0.56536884  0.81134700     0.01400
C960        C  0.89369856  0.55107413  0.82265310    -0.31500
C961        C  0.96839620  0.62657119  0.75737504     0.02700
C962        C  0.98288722  0.63833304  0.74603850    -0.33100
H963        H  0.96262059  0.62618844  0.80576799     0.13800
H964        H  0.93543602  0.59964273  0.82919557     0.13600
H965        H  0.91009909  0.56711641  0.76287253     0.13500
H966        H  0.93727744  0.59365594  0.73944943     0.12500
C967        C  0.79578508  0.58151415  0.92227203     0.18800
C968        C  0.77125885  0.57680153  0.92662628    -0.10300
C969        C  0.75784214  0.59218669  0.94163140    -0.11100
C970        C  0.76888100  0.61237093  0.95236183     0.20400
C971        C  0.79332723  0.61727799  0.94774670    -0.13200
C972        C  0.80675166  0.60188381  0.93273363    -0.11400
C973        C  0.75537085  0.62746757  0.96880031     0.01400
C974        C  0.74418174  0.63944028  0.98325088    -0.31500
C975        C  0.80978697  0.56504356  0.90766908     0.02700
C976        C  0.82121120  0.55061017  0.89589950    -0.33100
H977        H  0.76259838  0.56108475  0.91866886     0.13800
H978        H  0.73897692  0.58817287  0.94511710     0.13600
H979        H  0.80207029  0.63279554  0.95599608     0.13500
H980        H  0.82570887  0.60568699  0.92952924     0.12500
C981        C  0.76930330  0.38896352  0.95289343     0.18800
C982        C  0.79463996  0.38902924  0.95382986    -0.10300
C983        C  0.80788740  0.40415597  0.93839705    -0.11100
C984        C  0.79586121  0.41929775  0.92194916     0.20400
C985        C  0.77053435  0.41910244  0.92089190    -0.13200
C986        C  0.75728823  0.40397727  0.93632282    -0.11400
C987        C  0.80944310  0.43559670  0.90675603     0.01400
C988        C  0.82072773  0.44993553  0.89473266    -0.31500
C989        C  0.75564252  0.37394926  0.96930049     0.02700
C990        C  0.74426137  0.36187451  0.98352420    -0.33100
H991        H  0.80413394  0.37755200  0.96662290     0.13800
H992        H  0.82744651  0.40422175  0.93944932     0.13600
H993        H  0.76103071  0.43080769  0.90831398     0.13500
H994        H  0.73772060  0.40414118  0.93548256     0.12500
C995        C  0.95129332  0.39012869  0.76892855     0.18800
C996        C  0.94063148  0.41026212  0.75770131    -0.10300
C997        C  0.92524434  0.42550840  0.77087122    -0.11100
C998        C  0.92043545  0.42070437  0.79533585     0.20400
C999        C  0.93092826  0.40045775  0.80649724    -0.13200
C1000       C  0.94631261  0.38521575  0.79333095    -0.11400
C1001       C  0.90535055  0.43691066  0.80916570     0.01400
C1002       C  0.89339143  0.45096062  0.82088484    -0.31500
C1003       C  0.96786368  0.37495053  0.75563433     0.02700
C1004       C  0.98232762  0.36281105  0.74462533    -0.33100
H1005       H  0.94439717  0.41429524  0.73887949     0.13800
H1006       H  0.91729889  0.44115879  0.76205538     0.13600
H1007       H  0.92741378  0.39660302  0.82540337     0.13500
H1008       H  0.95450615  0.36974855  0.80223730     0.12500
loop_ 
_geom_bond_atom_site_label_1 
_geom_bond_atom_site_label_2 
_geom_bond_distance 
_geom_bond_site_symmetry_2 
_ccdc_geom_bond_type 
O1           Ni9   1.919       .  S
O1           C11   1.280       .  A
O2           Ni9   1.918       .  S
O2           C12   1.280       .  A
O3           Ni9   1.919       .  S
O3           C13   1.280       .  A
O4           Ni9   1.920       .  S
O4           C14   1.280       .  A
O5          Ni10   1.917       .  S
O5           C14   1.280       .  A
O6          Ni10   1.917       .  S
O6           C13   1.279       .  A
O7          Ni10   1.919       .  S
O7           C12   1.280       .  A
O8          Ni10   1.919       .  S
O8           C11   1.280       .  A
Ni9         Ni10   2.394       .  S
C11        C1002   1.436       .  S
C12         C976   1.436       .  S
C13         C960   1.435       .  S
C14         C988   1.436       .  S
O15         Ni23   1.918       .  S
O15          C25   1.280       .  A
O16         Ni23   1.919       .  S
O16          C26   1.280       .  A
O17         Ni23   1.919       .  S
O17          C27   1.280       .  A
O18         Ni23   1.918       .  S
O18          C28   1.280       .  A
O19         Ni24   1.919       .  S
O19          C28   1.280       .  A
O20         Ni24   1.920       .  S
O20          C27   1.280       .  A
O21         Ni24   1.920       .  S
O21          C26   1.280       .  A
O22         Ni24   1.920       .  S
O22          C25   1.280       .  A
Ni23        Ni24   2.394       .  S
C25         C918   1.436   1_554  S
C26         C934   1.437       .  S
C27         C946   1.437       .  S
C28         C974   1.436   1_554  S
O29         Ni37   1.918       .  S
O29          C39   1.280       .  A
O30         Ni37   1.919       .  S
O30          C40   1.280       .  A
O31         Ni37   1.918       .  S
O31          C41   1.280       .  A
O32         Ni37   1.917       .  S
O32          C42   1.280       .  A
O33         Ni38   1.921       .  S
O33          C42   1.280       .  A
O34         Ni38   1.922       .  S
O34          C41   1.281       .  A
O35         Ni38   1.921       .  S
O35          C40   1.280       .  A
O36         Ni38   1.919       .  S
O36          C39   1.280       .  A
Ni37        Ni38   2.393       .  S
C39         C920   1.436       .  S
C40         C890   1.438       .  S
C41         C904   1.438       .  S
C42         C876   1.436       .  S
O43         Ni51   1.919   1_565  S
O43          C53   1.280       .  A
O44         Ni51   1.920       .  S
O44          C54   1.280       .  A
O45         Ni51   1.921       .  S
O45          C55   1.280       .  A
O46         Ni51   1.921   1_565  S
O46          C56   1.280       .  A
O47         Ni52   1.918   1_565  S
O47          C56   1.280       .  A
O48         Ni52   1.918       .  S
O48          C55   1.280       .  A
O49         Ni52   1.918       .  S
O49          C54   1.280       .  A
O50         Ni52   1.918   1_565  S
O50          C53   1.280       .  A
Ni51        Ni52   2.394       .  S
C53         C878   1.436       .  S
C54         C862   1.437       .  S
C55         C850   1.437       .  S
C56         C834   1.437       .  S
O57         Ni65   1.920       .  S
O57          C67   1.280       .  A
O58         Ni65   1.920       .  S
O58          C68   1.280       .  A
O59         Ni65   1.921       .  S
O59          C69   1.280       .  A
O60         Ni65   1.919       .  S
O60          C70   1.280       .  A
O61         Ni66   1.917       .  S
O61          C70   1.280       .  A
O62         Ni66   1.919       .  S
O62          C69   1.280       .  A
O63         Ni66   1.920       .  S
O63          C68   1.280       .  A
O64         Ni66   1.921       .  S
O64          C67   1.280       .  A
Ni65        Ni66   2.393       .  S
C67         C794   1.438   1_455  S
C68         C820   1.438       .  S
C69         C806   1.438       .  S
C70         C962   1.435   1_455  S
O71         Ni79   1.919       .  S
O71          C81   1.280       .  A
O72         Ni79   1.919       .  S
O72          C82   1.280       .  A
O73         Ni79   1.920       .  S
O73          C83   1.280       .  A
O74         Ni79   1.919       .  S
O74          C84   1.280       .  A
O75         Ni80   1.921       .  S
O75          C84   1.280       .  A
O76         Ni80   1.921       .  S
O76          C83   1.280       .  A
O77         Ni80   1.920       .  S
O77          C82   1.280       .  A
O78         Ni80   1.921       .  S
O78          C81   1.280       .  A
Ni79        Ni80   2.393       .  S
C81         C764   1.437       .  S
C82         C836   1.437       .  S
C83         C792   1.438       .  S
C84         C778   1.437       .  S
O85         Ni93   1.921       .  S
O85          C95   1.280       .  A
O86         Ni93   1.921       .  S
O86          C96   1.280       .  A
O87         Ni93   1.920       .  S
O87          C97   1.280       .  A
O88         Ni93   1.921       .  S
O88          C98   1.280       .  A
O89         Ni94   1.920       .  S
O89          C98   1.280       .  A
O90         Ni94   1.919       .  S
O90          C97   1.280       .  A
O91         Ni94   1.919       .  S
O91          C96   1.280       .  A
O92         Ni94   1.918       .  S
O92          C95   1.280       .  A
Ni93        Ni94   2.393       .  S
C95         C724   1.437       .  S
C96         C736   1.438       .  S
C97         C848   1.437       .  S
C98         C750   1.438       .  S
O99        Ni107   1.919       .  S
O99         C109   1.280       .  A
O100       Ni107   1.918       .  S
O100        C110   1.280       .  A
O101       Ni107   1.920       .  S
O101        C111   1.280       .  A
O102       Ni107   1.918       .  S
O102        C112   1.280       .  A
O103       Ni108   1.920       .  S
O103        C112   1.280       .  A
O104       Ni108   1.921       .  S
O104        C111   1.280       .  A
O105       Ni108   1.920       .  S
O105        C110   1.280       .  A
O106       Ni108   1.921       .  S
O106        C109   1.280       .  A
Ni107      Ni108   2.393       .  S
C109        C708   1.437       .  S
C110        C990   1.436   1_554  S
C111        C738   1.438   1_554  S
C112        C696   1.437       .  S
O113       Ni121   1.919       .  S
O113        C123   1.280       .  A
O114       Ni121   1.919       .  S
O114        C124   1.280       .  A
O115       Ni121   1.920       .  S
O115        C125   1.280       .  A
O116       Ni121   1.920       .  S
O116        C126   1.280       .  A
O117       Ni122   1.919       .  S
O117        C126   1.280       .  A
O118       Ni122   1.919       .  S
O118        C125   1.280       .  A
O119       Ni122   1.919       .  S
O119        C124   1.280       .  A
O120       Ni122   1.919       .  S
O120        C123   1.280       .  A
Ni121      Ni122   2.394       .  S
C123        C694   1.436       .  S
C124        C666   1.436       .  S
C125        C932   1.437       .  S
C126        C680   1.437       .  S
O127       Ni135   1.919       .  S
O127        C137   1.280       .  A
O128       Ni135   1.919       .  S
O128        C138   1.280       .  A
O129       Ni135   1.918       .  S
O129        C139   1.280       .  A
O130       Ni135   1.917       .  S
O130        C140   1.280       .  A
O131       Ni136   1.919       .  S
O131        C140   1.280       .  A
O132       Ni136   1.920       .  S
O132        C139   1.280       .  A
O133       Ni136   1.920       .  S
O133        C138   1.280       .  A
O134       Ni136   1.920       .  S
O134        C137   1.280       .  A
Ni135      Ni136   2.394       .  S
C137        C766   1.437   1_455  S
C138        C652   1.437       .  S
C139        C638   1.436       .  S
C140        C668   1.436   1_455  S
O141       Ni149   1.920       .  S
O141        C151   1.280       .  A
O142       Ni149   1.921       .  S
O142        C152   1.280       .  A
O143       Ni149   1.922       .  S
O143        C153   1.280       .  A
O144       Ni149   1.922       .  S
O144        C154   1.280       .  A
O145       Ni150   1.920       .  S
O145        C154   1.280       .  A
O146       Ni150   1.920       .  S
O146        C153   1.280       .  A
O147       Ni150   1.918       .  S
O147        C152   1.280       .  A
O148       Ni150   1.918       .  S
O148        C151   1.280       .  A
Ni149      Ni150   2.393       .  S
C151        C640   1.437       .  S
C152        C610   1.437       .  S
C153        C808   1.439       .  S
C154        C624   1.439       .  S
O155       Ni163   1.919   1_565  S
O155        C165   1.280       .  A
O156       Ni163   1.920       .  S
O156        C166   1.280       .  A
O157       Ni163   1.918       .  S
O157        C167   1.280       .  A
O158       Ni163   1.918   1_565  S
O158        C168   1.280       .  A
O159       Ni164   1.920   1_565  S
O159        C168   1.280       .  A
O160       Ni164   1.920       .  S
O160        C167   1.280       .  A
O161       Ni164   1.921       .  S
O161        C166   1.280       .  A
O162       Ni164   1.921   1_565  S
O162        C165   1.280       .  A
Ni163      Ni164   2.393       .  S
C165        C892   1.438       .  S
C166        C598   1.438       .  S
C167        C722   1.437       .  S
C168        C612   1.437       .  S
O169       Ni177   1.920   1_545  S
O169        C179   1.280       .  A
O170       Ni177   1.920       .  S
O170        C180   1.280       .  A
O171       Ni177   1.921       .  S
O171        C181   1.280       .  A
O172       Ni177   1.921   1_545  S
O172        C182   1.280       .  A
O173       Ni178   1.919   1_545  S
O173        C182   1.280       .  A
O174       Ni178   1.919       .  S
O174        C181   1.280       .  A
O175       Ni178   1.919       .  S
O175        C180   1.280       .  A
O176       Ni178   1.919   1_545  S
O176        C179   1.280       .  A
Ni177      Ni178   2.393       .  S
C179        C584   1.437       .  S
C180        C780   1.437       .  S
C181        C570   1.437       .  S
C182        C556   1.437       .  S
O183       Ni191   1.919       .  S
O183        C193   1.280       .  A
O184       Ni191   1.919       .  S
O184        C194   1.280       .  A
O185       Ni191   1.918       .  S
O185        C195   1.280       .  A
O186       Ni191   1.919       .  S
O186        C196   1.280       .  A
O187       Ni192   1.922       .  S
O187        C196   1.280       .  A
O188       Ni192   1.921       .  S
O188        C195   1.281       .  A
O189       Ni192   1.921       .  S
O189        C194   1.280       .  A
O190       Ni192   1.921       .  S
O190        C193   1.280       .  A
Ni191      Ni192   2.393       .  S
C193        C526   1.438       .  S
C194        C568   1.438       .  S
C195        C948   1.438       .  S
C196        C540   1.438       .  S
O197       Ni205   1.918       .  S
O197        C207   1.280       .  A
O198       Ni205   1.918       .  S
O198        C208   1.280       .  A
O199       Ni205   1.919       .  S
O199        C209   1.280       .  A
O200       Ni205   1.919       .  S
O200        C210   1.280       .  A
O201       Ni206   1.921       .  S
O201        C210   1.280       .  A
O202       Ni206   1.921       .  S
O202        C209   1.280       .  A
O203       Ni206   1.921       .  S
O203        C208   1.280       .  A
O204       Ni206   1.921       .  S
O204        C207   1.280       .  A
Ni205      Ni206   2.393       .  S
C207        C486   1.437       .  S
C208        C500   1.437       .  S
C209        C822   1.438       .  S
C210        C512   1.438       .  S
O211       Ni219   1.922       .  S
O211        C221   1.281       .  A
O212       Ni219   1.921       .  S
O212        C222   1.280       .  A
O213       Ni219   1.920       .  S
O213        C223   1.280       .  A
O214       Ni219   1.920       .  S
O214        C224   1.280       .  A
O215       Ni220   1.920       .  S
O215        C224   1.280       .  A
O216       Ni220   1.920       .  S
O216        C223   1.280       .  A
O217       Ni220   1.918       .  S
O217        C222   1.280       .  A
O218       Ni220   1.919       .  S
O218        C221   1.280       .  A
Ni219      Ni220   2.393       .  S
C221        C906   1.438   1_554  S
C222        C472   1.437       .  S
C223        C528   1.438       .  S
C224        C498   1.438   1_554  S
O225       Ni233   1.917       .  S
O225        C235   1.279       .  A
O226       Ni233   1.918       .  S
O226        C236   1.280       .  A
O227       Ni233   1.919       .  S
O227        C237   1.280       .  A
O228       Ni233   1.920       .  S
O228        C238   1.280       .  A
O229       Ni234   1.919       .  S
O229        C238   1.280       .  A
O230       Ni234   1.918       .  S
O230        C237   1.280       .  A
O231       Ni234   1.921       .  S
O231        C236   1.280       .  A
O232       Ni234   1.920       .  S
O232        C235   1.280       .  A
Ni233      Ni234   2.394       .  S
C235        C442   1.435       .  S
C236        C654   1.437       .  S
C237        C470   1.436       .  S
C238        C456   1.437       .  S
O239       Ni247   1.919       .  S
O239        C249   1.280       .  A
O240       Ni247   1.920       .  S
O240        C250   1.280       .  A
O241       Ni247   1.921       .  S
O241        C251   1.280       .  A
O242       Ni247   1.919       .  S
O242        C252   1.280       .  A
O243       Ni248   1.918       .  S
O243        C252   1.280       .  A
O244       Ni248   1.919       .  S
O244        C251   1.280       .  A
O245       Ni248   1.918       .  S
O245        C250   1.280       .  A
O246       Ni248   1.918       .  S
O246        C249   1.280       .  A
Ni247      Ni248   2.394       .  S
C249        C428   1.436       .  S
C250        C514   1.437   1_554  S
C251        C752   1.438   1_554  S
C252        C444   1.435       .  S
O253       Ni261   1.920       .  S
O253        C263   1.280       .  A
O254       Ni261   1.921       .  S
O254        C264   1.280       .  A
O255       Ni261   1.920       .  S
O255        C265   1.280       .  A
O256       Ni261   1.921       .  S
O256        C266   1.280       .  A
O257       Ni262   1.920       .  S
O257        C266   1.280       .  A
O258       Ni262   1.920       .  S
O258        C265   1.280       .  A
O259       Ni262   1.917       .  S
O259        C264   1.279       .  A
O260       Ni262   1.917       .  S
O260        C263   1.279       .  A
Ni261      Ni262   2.393       .  S
C263        C430   1.435       .  S
C264        C582   1.436       .  S
C265        C710   1.438       .  S
C266        C414   1.438       .  S
O267       Ni275   1.918       .  S
O267        C277   1.280       .  A
O268       Ni275   1.918       .  S
O268        C278   1.280       .  A
O269       Ni275   1.918       .  S
O269        C279   1.280       .  A
O270       Ni275   1.917       .  S
O270        C280   1.280       .  A
O271       Ni276   1.921       .  S
O271        C280   1.280       .  A
O272       Ni276   1.922       .  S
O272        C279   1.281       .  A
O273       Ni276   1.919       .  S
O273        C278   1.280       .  A
O274       Ni276   1.920       .  S
O274        C277   1.280       .  A
Ni275      Ni276   2.394       .  S
C277        C484   1.436       .  S
C278        C388   1.435   1_455  S
C279       C1004   1.437   1_455  S
C280        C400   1.437       .  S
O281       Ni289   1.918       .  S
O281        C291   1.280       .  A
O282       Ni289   1.917       .  S
O282        C292   1.279       .  A
O283       Ni289   1.917       .  S
O283        C293   1.280       .  A
O284       Ni289   1.917       .  S
O284        C294   1.280       .  A
O285       Ni290   1.921       .  S
O285        C294   1.280       .  A
O286       Ni290   1.922       .  S
O286        C293   1.280       .  A
O287       Ni290   1.920       .  S
O287        C292   1.280       .  A
O288       Ni290   1.920       .  S
O288        C291   1.280       .  A
Ni289      Ni290   2.394       .  S
C291        C554   1.437       .  S
C292        C386   1.435       .  S
C293        C864   1.437       .  S
C294        C374   1.437       .  S
O295       Ni303   1.922       .  S
O295        C305   1.280       .  A
O296       Ni303   1.921       .  S
O296        C306   1.280       .  A
O297       Ni303   1.921       .  S
O297        C307   1.280       .  A
O298       Ni303   1.921       .  S
O298        C308   1.280       .  A
O299       Ni304   1.918       .  S
O299        C308   1.280       .  A
O300       Ni304   1.919       .  S
O300        C307   1.280       .  A
O301       Ni304   1.918       .  S
O301        C306   1.280       .  A
O302       Ni304   1.919       .  S
O302        C305   1.280       .  A
Ni303      Ni304   2.393       .  S
C305        C360   1.438       .  S
C306        C402   1.437       .  S
C307        C596   1.438       .  S
C308        C346   1.437       .  S
O309       Ni317   1.919       .  S
O309        C319   1.280       .  A
O310       Ni317   1.920   1_565  S
O310        C320   1.280       .  A
O311       Ni317   1.920   1_565  S
O311        C321   1.280       .  A
O312       Ni317   1.920       .  S
O312        C322   1.280       .  A
O313       Ni318   1.920       .  S
O313        C322   1.280       .  A
O314       Ni318   1.920   1_565  S
O314        C321   1.280       .  A
O315       Ni318   1.922   1_565  S
O315        C320   1.281       .  A
O316       Ni318   1.922       .  S
O316        C319   1.280       .  A
Ni317      Ni318   2.393       .  S
C319        C416   1.438       .  S
C320        C626   1.439       .  S
C321        C542   1.438       .  S
C322        C358   1.438       .  S
O323       Ni331   1.920       .  S
O323        C333   1.280       .  A
O324       Ni331   1.920       .  S
O324        C334   1.280       .  A
O325       Ni331   1.921       .  S
O325        C335   1.280       .  A
O326       Ni331   1.921       .  S
O326        C336   1.280       .  A
O327       Ni332   1.918       .  S
O327        C336   1.280       .  A
O328       Ni332   1.917       .  S
O328        C335   1.279       .  A
O329       Ni332   1.919       .  S
O329        C334   1.280       .  A
O330       Ni332   1.918       .  S
O330        C333   1.280       .  A
Ni331      Ni332   2.393       .  S
C333        C372   1.437   1_455  S
C334        C458   1.437       .  S
C335        C344   1.436       .  S
C336        C682   1.437   1_455  S
C337        C345   1.442       .  S
C337        C338   1.402       .  A
C337        C342   1.402       .  A
C338        C339   1.400       .  A
C338        H347   1.083       .  S
C339        C340   1.401       .  A
C339        H348   1.083       .  S
C340        C343   1.441       .  S
C340        C341   1.402       .  A
C341        C342   1.400       .  A
C341        H349   1.084       .  S
C342        H350   1.083       .  S
C343        C344   1.207       .  T
C345        C346   1.207       .  T
C351        C359   1.443       .  S
C351        C352   1.402       .  A
C351        C356   1.402       .  A
C352        C353   1.400       .  A
C352        H361   1.083       .  S
C353        C354   1.402       .  A
C353        H362   1.084       .  S
C354        C357   1.443       .  S
C354        C355   1.402       .  A
C355        C356   1.400       .  A
C355        H363   1.083       .  S
C356        H364   1.083       .  S
C357        C358   1.208       .  T
C359        C360   1.208       .  T
C365        C373   1.442       .  S
C365        C366   1.402       .  A
C365        C370   1.402       .  A
C366        C367   1.400       .  A
C366        H375   1.083       .  S
C367        C368   1.402       .  A
C367        H376   1.084       .  S
C368        C371   1.442       .  S
C368        C369   1.402       .  A
C369        C370   1.399       .  A
C369        H377   1.083       .  S
C370        H378   1.084       .  S
C371        C372   1.207       .  T
C373        C374   1.207       .  T
C379        C387   1.440       .  S
C379        C380   1.402       .  A
C379        C384   1.401       .  A
C380        C381   1.400       .  A
C380        H389   1.083       .  S
C381        C382   1.401       .  A
C381        H390   1.083       .  S
C382        C385   1.440       .  S
C382        C383   1.401       .  A
C383        C384   1.399       .  A
C383        H391   1.084       .  S
C384        H392   1.084       .  S
C385        C386   1.206       .  T
C387        C388   1.206       .  T
C393        C401   1.442       .  S
C393        C394   1.402       .  A
C393        C398   1.402       .  A
C394        C395   1.400       .  A
C394        H403   1.084       .  S
C395        C396   1.402       .  A
C395        H404   1.083       .  S
C396        C399   1.442       .  S
C396        C397   1.402       .  A
C397        C398   1.400       .  A
C397        H405   1.084       .  S
C398        H406   1.083       .  S
C399        C400   1.207       .  T
C401        C402   1.207       .  T
C407        C415   1.443       .  S
C407        C408   1.402       .  A
C407        C412   1.402       .  A
C408        C409   1.401       .  A
C408        H417   1.084       .  S
C409        C410   1.402       .  A
C409        H418   1.083       .  S
C410        C413   1.443       .  S
C410        C411   1.401       .  A
C411        C412   1.400       .  A
C411        H419   1.084       .  S
C412        H420   1.083       .  S
C413        C414   1.208       .  T
C415        C416   1.208       .  T
C421        C429   1.440       .  S
C421        C422   1.401       .  A
C421        C426   1.402       .  A
C422        C423   1.399       .  A
C422        H431   1.083       .  S
C423        C424   1.401       .  A
C423        H432   1.084       .  S
C424        C427   1.440       .  S
C424        C425   1.402       .  A
C425        C426   1.400       .  A
C425        H433   1.083       .  S
C426        H434   1.084       .  S
C427        C428   1.206       .  T
C429        C430   1.206       .  T
C435        C443   1.440       .  S
C435        C436   1.401       .  A
C435        C440   1.401       .  A
C436        C437   1.399       .  A
C436        H445   1.083       .  S
C437        C438   1.401       .  A
C437        H446   1.084       .  S
C438        C441   1.440       .  S
C438        C439   1.401       .  A
C439        C440   1.399       .  A
C439        H447   1.083       .  S
C440        H448   1.084       .  S
C441        C442   1.206       .  T
C443        C444   1.206       .  T
C449        C457   1.442       .  S
C449        C450   1.402       .  A
C449        C454   1.401       .  A
C450        C451   1.401       .  A
C450        H459   1.084       .  S
C451        C452   1.402       .  A
C451        H460   1.083       .  S
C452        C455   1.442       .  S
C452        C453   1.401       .  A
C453        C454   1.399       .  A
C453        H461   1.084       .  S
C454        H462   1.083       .  S
C455        C456   1.207       .  T
C457        C458   1.207       .  T
C463        C471   1.442       .  S
C463        C464   1.402       .  A
C463        C468   1.401       .  A
C464        C465   1.400       .  A
C464        H473   1.084       .  S
C465        C466   1.402       .  A
C465        H474   1.083       .  S
C466        C469   1.441       .  S
C466        C467   1.401       .  A
C467        C468   1.399       .  A
C467        H475   1.084       .  S
C468        H476   1.083       .  S
C469        C470   1.207       .  T
C471        C472   1.207       .  T
C477        C485   1.441       .  S
C477        C478   1.402       .  A
C477        C482   1.402       .  A
C478        C479   1.399       .  A
C478        H487   1.084       .  S
C479        C480   1.402       .  A
C479        H488   1.083       .  S
C480        C483   1.441       .  S
C480        C481   1.401       .  A
C481        C482   1.400       .  A
C481        H489   1.084       .  S
C482        H490   1.083       .  S
C483        C484   1.207       .  T
C485        C486   1.207       .  T
C491        C499   1.442       .  S
C491        C492   1.402       .  A
C491        C496   1.401       .  A
C492        C493   1.400       .  A
C492        H501   1.083       .  S
C493        C494   1.402       .  A
C493        H502   1.084       .  S
C494        C497   1.442       .  S
C494        C495   1.402       .  A
C495        C496   1.399       .  A
C495        H503   1.083       .  S
C496        H504   1.084       .  S
C497        C498   1.207       .  T
C499        C500   1.207       .  T
C505        C513   1.442       .  S
C505        C506   1.402       .  A
C505        C510   1.402       .  A
C506        C507   1.399       .  A
C506        H515   1.084       .  S
C507        C508   1.402       .  A
C507        H516   1.083       .  S
C508        C511   1.443       .  S
C508        C509   1.402       .  A
C509        C510   1.401       .  A
C509        H517   1.084       .  S
C510        H518   1.083       .  S
C511        C512   1.208       .  T
C513        C514   1.207       .  T
C519        C527   1.442       .  S
C519        C520   1.402       .  A
C519        C524   1.402       .  A
C520        C521   1.401       .  A
C520        H529   1.083       .  S
C521        C522   1.402       .  A
C521        H530   1.083       .  S
C522        C525   1.443       .  S
C522        C523   1.402       .  A
C523        C524   1.399       .  A
C523        H531   1.083       .  S
C524        H532   1.084       .  S
C525        C526   1.208       .  T
C527        C528   1.207       .  T
C533        C541   1.442       .  S
C533        C534   1.402       .  A
C533        C538   1.401       .  A
C534        C535   1.401       .  A
C534        H543   1.083       .  S
C535        C536   1.402       .  A
C535        H544   1.084       .  S
C536        C539   1.443       .  S
C536        C537   1.401       .  A
C537        C538   1.399       .  A
C537        H545   1.083       .  S
C538        H546   1.084       .  S
C539        C540   1.208       .  T
C541        C542   1.207       .  T
C547        C555   1.442       .  S
C547        C548   1.401       .  A
C547        C552   1.402       .  A
C548        C549   1.399       .  A
C548        H557   1.083       .  S
C549        C550   1.402       .  A
C549        H558   1.084       .  S
C550        C553   1.442       .  S
C550        C551   1.402       .  A
C551        C552   1.400       .  A
C551        H559   1.083       .  S
C552        H560   1.084       .  S
C553        C554   1.207       .  T
C555        C556   1.207       .  T
C561        C569   1.442       .  S
C561        C562   1.402       .  A
C561        C566   1.401       .  A
C562        C563   1.401       .  A
C562        H571   1.084       .  S
C563        C564   1.402       .  A
C563        H572   1.083       .  S
C564        C567   1.443       .  S
C564        C565   1.401       .  A
C565        C566   1.399       .  A
C565        H573   1.084       .  S
C566        H574   1.083       .  S
C567        C568   1.208       .  T
C569        C570   1.207       .  T
C575        C583   1.442       .  S
C575        C576   1.402       .  A
C575        C580   1.402       .  A
C576        C577   1.400       .  A
C576        H585   1.083       .  S
C577        C578   1.402       .  A
C577        H586   1.084       .  S
C578        C581   1.441       .  S
C578        C579   1.401       .  A
C579        C580   1.400       .  A
C579        H587   1.083       .  S
C580        H588   1.083       .  S
C581        C582   1.207       .  T
C583        C584   1.207       .  T
C589        C597   1.443       .  S
C589        C590   1.402       .  A
C589        C594   1.402       .  A
C590        C591   1.401       .  A
C590        H599   1.083       .  S
C591        C592   1.402       .  A
C591        H600   1.083       .  S
C592        C595   1.443       .  S
C592        C593   1.402       .  A
C593        C594   1.400       .  A
C593        H601   1.084       .  S
C594        H602   1.083       .  S
C595        C596   1.208       .  T
C597        C598   1.208       .  T
C603        C611   1.442       .  S
C603        C604   1.401       .  A
C603        C608   1.402       .  A
C604        C605   1.399       .  A
C604        H613   1.083       .  S
C605        C606   1.401       .  A
C605        H614   1.084       .  S
C606        C609   1.442       .  S
C606        C607   1.402       .  A
C607        C608   1.401       .  A
C607        H615   1.083       .  S
C608        H616   1.084       .  S
C609        C610   1.207       .  T
C611        C612   1.207       .  T
C617        C625   1.444       .  S
C617        C618   1.402       .  A
C617        C622   1.402       .  A
C618        C619   1.400       .  A
C618        H627   1.084       .  S
C619        C620   1.402       .  A
C619        H628   1.083       .  S
C620        C623   1.444       .  S
C620        C621   1.402       .  A
C621        C622   1.401       .  A
C621        H629   1.084       .  S
C622        H630   1.083       .  S
C623        C624   1.208       .  T
C625        C626   1.208       .  T
C631        C639   1.441       .  S
C631        C632   1.402       .  A
C631        C636   1.401       .  A
C632        C633   1.400       .  A
C632        H641   1.083       .  S
C633        C634   1.402       .  A
C633        H642   1.083       .  S
C634        C637   1.441       .  S
C634        C635   1.401       .  A
C635        C636   1.399       .  A
C635        H643   1.084       .  S
C636        H644   1.083       .  S
C637        C638   1.207       .  T
C639        C640   1.207       .  T
C645        C653   1.442       .  S
C645        C646   1.402       .  A
C645        C650   1.402       .  A
C646        C647   1.400       .  A
C646        H655   1.084       .  S
C647        C648   1.402       .  A
C647        H656   1.083       .  S
C648        C651   1.442       .  S
C648        C649   1.402       .  A
C649        C650   1.400       .  A
C649        H657   1.083       .  S
C650        H658   1.083       .  S
C651        C652   1.207       .  T
C653        C654   1.207       .  T
C659        C667   1.440       .  S
C659        C660   1.401       .  A
C659        C664   1.402       .  A
C660        C661   1.399       .  A
C660        H669   1.083       .  S
C661        C662   1.401       .  A
C661        H670   1.084       .  S
C662        C665   1.441       .  S
C662        C663   1.402       .  A
C663        C664   1.400       .  A
C663        H671   1.083       .  S
C664        H672   1.084       .  S
C665        C666   1.206       .  T
C667        C668   1.206       .  T
C673        C681   1.442       .  S
C673        C674   1.401       .  A
C673        C678   1.402       .  A
C674        C675   1.399       .  A
C674        H683   1.083       .  S
C675        C676   1.401       .  A
C675        H684   1.083       .  S
C676        C679   1.442       .  S
C676        C677   1.402       .  A
C677        C678   1.401       .  A
C677        H685   1.083       .  S
C678        H686   1.083       .  S
C679        C680   1.207       .  T
C681        C682   1.207       .  T
C687        C695   1.441       .  S
C687        C688   1.402       .  A
C687        C692   1.402       .  A
C688        C689   1.399       .  A
C688        H697   1.083       .  S
C689        C690   1.402       .  A
C689        H698   1.084       .  S
C690        C693   1.441       .  S
C690        C691   1.402       .  A
C691        C692   1.400       .  A
C691        H699   1.083       .  S
C692        H700   1.084       .  S
C693        C694   1.207       .  T
C695        C696   1.207       .  T
C701        C709   1.443       .  S
C701        C702   1.401       .  A
C701        C706   1.402       .  A
C702        C703   1.399       .  A
C702        H711   1.084       .  S
C703        C704   1.401       .  A
C703        H712   1.083       .  S
C704        C707   1.442       .  S
C704        C705   1.402       .  A
C705        C706   1.401       .  A
C705        H713   1.084       .  S
C706        H714   1.083       .  S
C707        C708   1.207       .  T
C709        C710   1.208       .  T
C715        C723   1.441       .  S
C715        C716   1.401       .  A
C715        C720   1.402       .  A
C716        C717   1.399       .  A
C716        H725   1.084       .  S
C717        C718   1.401       .  A
C717        H726   1.083       .  S
C718        C721   1.441       .  S
C718        C719   1.402       .  A
C719        C720   1.400       .  A
C719        H727   1.084       .  S
C720        H728   1.083       .  S
C721        C722   1.207       .  T
C723        C724   1.207       .  T
C729        C737   1.443       .  S
C729        C730   1.401       .  A
C729        C734   1.402       .  A
C730        C731   1.399       .  A
C730        H739   1.084       .  S
C731        C732   1.401       .  A
C731        H740   1.083       .  S
C732        C735   1.443       .  S
C732        C733   1.402       .  A
C733        C734   1.401       .  A
C733        H741   1.084       .  S
C734        H742   1.083       .  S
C735        C736   1.208       .  T
C737        C738   1.208       .  T
C743        C751   1.442       .  S
C743        C744   1.402       .  A
C743        C748   1.402       .  A
C744        C745   1.400       .  A
C744        H753   1.083       .  S
C745        C746   1.402       .  A
C745        H754   1.084       .  S
C746        C749   1.443       .  S
C746        C747   1.402       .  A
C747        C748   1.400       .  A
C747        H755   1.083       .  S
C748        H756   1.084       .  S
C749        C750   1.208       .  T
C751        C752   1.207       .  T
C757        C765   1.442       .  S
C757        C758   1.402       .  A
C757        C762   1.401       .  A
C758        C759   1.400       .  A
C758        H767   1.083       .  S
C759        C760   1.402       .  A
C759        H768   1.084       .  S
C760        C763   1.442       .  S
C760        C761   1.402       .  A
C761        C762   1.399       .  A
C761        H769   1.083       .  S
C762        H770   1.084       .  S
C763        C764   1.207       .  T
C765        C766   1.207       .  T
C771        C779   1.442       .  S
C771        C772   1.402       .  A
C771        C776   1.402       .  A
C772        C773   1.400       .  A
C772        H781   1.084       .  S
C773        C774   1.402       .  A
C773        H782   1.083       .  S
C774        C777   1.442       .  S
C774        C775   1.402       .  A
C775        C776   1.400       .  A
C775        H783   1.084       .  S
C776        H784   1.083       .  S
C777        C778   1.207       .  T
C779        C780   1.207       .  T
C785        C793   1.443       .  S
C785        C786   1.402       .  A
C785        C790   1.402       .  A
C786        C787   1.401       .  A
C786        H795   1.083       .  S
C787        C788   1.402       .  A
C787        H796   1.083       .  S
C788        C791   1.443       .  S
C788        C789   1.402       .  A
C789        C790   1.400       .  A
C789        H797   1.083       .  S
C790        H798   1.084       .  S
C791        C792   1.208       .  T
C793        C794   1.208       .  T
C799        C807   1.443       .  S
C799        C800   1.402       .  A
C799        C804   1.402       .  A
C800        C801   1.400       .  A
C800        H809   1.084       .  S
C801        C802   1.402       .  A
C801        H810   1.083       .  S
C802        C805   1.443       .  S
C802        C803   1.402       .  A
C803        C804   1.401       .  A
C803        H811   1.084       .  S
C804        H812   1.083       .  S
C805        C806   1.208       .  T
C807        C808   1.208       .  T
C813        C821   1.442       .  S
C813        C814   1.402       .  A
C813        C818   1.402       .  A
C814        C815   1.400       .  A
C814        H823   1.084       .  S
C815        C816   1.402       .  A
C815        H824   1.083       .  S
C816        C819   1.442       .  S
C816        C817   1.402       .  A
C817        C818   1.401       .  A
C817        H825   1.083       .  S
C818        H826   1.083       .  S
C819        C820   1.208       .  T
C821        C822   1.207       .  T
C827        C835   1.442       .  S
C827        C828   1.402       .  A
C827        C832   1.402       .  A
C828        C829   1.400       .  A
C828        H837   1.084       .  S
C829        C830   1.402       .  A
C829        H838   1.083       .  S
C830        C833   1.442       .  S
C830        C831   1.402       .  A
C831        C832   1.400       .  A
C831        H839   1.084       .  S
C832        H840   1.083       .  S
C833        C834   1.207       .  T
C835        C836   1.207       .  T
C841        C849   1.442       .  S
C841        C842   1.402       .  A
C841        C846   1.402       .  A
C842        C843   1.400       .  A
C842        H851   1.084       .  S
C843        C844   1.402       .  A
C843        H852   1.083       .  S
C844        C847   1.442       .  S
C844        C845   1.402       .  A
C845        C846   1.400       .  A
C845        H853   1.084       .  S
C846        H854   1.083       .  S
C847        C848   1.207       .  T
C849        C850   1.207       .  T
C855        C863   1.442       .  S
C855        C856   1.402       .  A
C855        C860   1.401       .  A
C856        C857   1.401       .  A
C856        H865   1.084       .  S
C857        C858   1.402       .  A
C857        H866   1.083       .  S
C858        C861   1.441       .  S
C858        C859   1.401       .  A
C859        C860   1.399       .  A
C859        H867   1.084       .  S
C860        H868   1.083       .  S
C861        C862   1.207       .  T
C863        C864   1.207       .  T
C869        C877   1.441       .  S
C869        C870   1.401       .  A
C869        C874   1.402       .  A
C870        C871   1.398       .  A
C870        H879   1.084       .  S
C871        C872   1.401       .  A
C871        H880   1.083       .  S
C872        C875   1.441       .  S
C872        C873   1.402       .  A
C873        C874   1.401       .  A
C873        H881   1.084       .  S
C874        H882   1.083       .  S
C875        C876   1.206       .  T
C877        C878   1.206       .  T
C883        C891   1.442       .  S
C883        C884   1.402       .  A
C883        C888   1.402       .  A
C884        C885   1.400       .  A
C884        H893   1.083       .  S
C885        C886   1.402       .  A
C885        H894   1.083       .  S
C886        C889   1.442       .  S
C886        C887   1.402       .  A
C887        C888   1.400       .  A
C887        H895   1.084       .  S
C888        H896   1.083       .  S
C889        C890   1.207       .  T
C891        C892   1.208       .  T
C897        C905   1.443       .  S
C897        C898   1.402       .  A
C897        C902   1.402       .  A
C898        C899   1.400       .  A
C898        H907   1.083       .  S
C899        C900   1.402       .  A
C899        H908   1.084       .  S
C900        C903   1.443       .  S
C900        C901   1.402       .  A
C901        C902   1.401       .  A
C901        H909   1.083       .  S
C902        H910   1.083       .  S
C903        C904   1.208       .  T
C905        C906   1.208       .  T
C911        C919   1.441       .  S
C911        C912   1.402       .  A
C911        C916   1.401       .  A
C912        C913   1.401       .  A
C912        H921   1.083       .  S
C913        C914   1.402       .  A
C913        H922   1.083       .  S
C914        C917   1.441       .  S
C914        C915   1.401       .  A
C915        C916   1.398       .  A
C915        H923   1.083       .  S
C916        H924   1.084       .  S
C917        C918   1.206       .  T
C919        C920   1.207       .  T
C925        C933   1.442       .  S
C925        C926   1.402       .  A
C925        C930   1.402       .  A
C926        C927   1.399       .  A
C926        H935   1.083       .  S
C927        C928   1.401       .  A
C927        H936   1.084       .  S
C928        C931   1.442       .  S
C928        C929   1.402       .  A
C929        C930   1.400       .  A
C929        H937   1.083       .  S
C930        H938   1.084       .  S
C931        C932   1.207       .  T
C933        C934   1.207       .  T
C939        C947   1.442       .  S
C939        C940   1.402       .  A
C939        C944   1.402       .  A
C940        C941   1.401       .  A
C940        H949   1.084       .  S
C941        C942   1.402       .  A
C941        H950   1.083       .  S
C942        C945   1.442       .  S
C942        C943   1.401       .  A
C943        C944   1.399       .  A
C943        H951   1.084       .  S
C944        H952   1.083       .  S
C945        C946   1.207       .  T
C947        C948   1.207       .  T
C953        C961   1.440       .  S
C953        C954   1.401       .  A
C953        C958   1.401       .  A
C954        C955   1.399       .  A
C954        H963   1.083       .  S
C955        C956   1.401       .  A
C955        H964   1.084       .  S
C956        C959   1.440       .  S
C956        C957   1.401       .  A
C957        C958   1.399       .  A
C957        H965   1.083       .  S
C958        H966   1.084       .  S
C959        C960   1.206       .  T
C961        C962   1.206       .  T
C967        C975   1.440       .  S
C967        C968   1.401       .  A
C967        C972   1.401       .  A
C968        C969   1.399       .  A
C968        H977   1.084       .  S
C969        C970   1.401       .  A
C969        H978   1.083       .  S
C970        C973   1.441       .  S
C970        C971   1.402       .  A
C971        C972   1.400       .  A
C971        H979   1.084       .  S
C972        H980   1.083       .  S
C973        C974   1.206       .  T
C975        C976   1.206       .  T
C981        C989   1.441       .  S
C981        C982   1.402       .  A
C981        C986   1.401       .  A
C982        C983   1.400       .  A
C982        H991   1.084       .  S
C983        C984   1.402       .  A
C983        H992   1.083       .  S
C984        C987   1.441       .  S
C984        C985   1.401       .  A
C985        C986   1.399       .  A
C985        H993   1.084       .  S
C986        H994   1.083       .  S
C987        C988   1.206       .  T
C989        C990   1.207       .  T
C995       C1003   1.442       .  S
C995        C996   1.402       .  A
C995       C1000   1.401       .  A
C996        C997   1.400       .  A
C996       H1005   1.083       .  S
C997        C998   1.402       .  A
C997       H1006   1.084       .  S
C998       C1001   1.441       .  S
C998        C999   1.401       .  A
C999       C1000   1.400       .  A
C999       H1007   1.083       .  S
C1000      H1008   1.084       .  S
C1001      C1002   1.207       .  T
C1003      C1004   1.207       .  T
