geometry optimzed in LAMMPS
_audit_creation_date              2020-11-30 
_audit_creation_method            'lammps2cif' 
_symmetry_space_group_name_H-M    'P1' 
_symmetry_Int_Tables_number       1 
_symmetry_cell_setting            triclinic 
loop_ 
_symmetry_equiv_pos_as_xyz 
  x,y,z 
_cell_length_a                    36.26249089 
_cell_length_b                    29.753733289032837 
_cell_length_c                    26.867770901724437 
_cell_angle_alpha                 112.20403064545856 
_cell_angle_beta                  89.88438783256933 
_cell_angle_gamma                 90.01090622640915 
loop_ 
_atom_site_label 
_atom_site_type_symbol 
_atom_site_fract_x 
_atom_site_fract_y 
_atom_site_fract_z 
_atom_site_charge 
O1          O  0.09706180  0.12991950  0.93871191    -0.81200
O2          O  0.15855344  0.34301119  0.98206249    -0.65900
O3          O  0.13844332  0.21753563  0.98267668    -1.12500
C4          C  0.05073535  0.29217743  0.11226537     1.05700
O5          O  0.14855723  0.38632952  0.06874950    -0.79100
O6          O  0.14985019  0.31763879  0.11357336    -0.66700
Ni7        Ni  0.13494211  0.16361183  0.91463083     1.34900
C8          C  0.14689133  0.27563736  0.11524092     0.84400
O9          O  0.19207433  0.25931138  0.94021632    -0.79600
O10         O  0.17325433  0.18802763  0.88085630    -0.89900
C11         C  0.16207281  0.38175899  0.02316521     0.84000
O12         O  0.09838075  0.19380815  0.88722600    -0.68100
O13         O  0.07477569  0.32597100  0.12853549    -0.87400
C14         C  0.09943006  0.23613970  0.88616120     0.84800
C15         C  0.19499735  0.22437949  0.89534132     1.06400
H16         H  0.08647093  0.31027767  0.00502944     0.38200
O17         O  0.10545608  0.30077033  0.02427192    -1.10000
O18         O  0.12266261  0.24528268  0.08808161    -0.66700
Ni19       Ni  0.09441993  0.23825472  0.02423793     1.26300
O20         O  0.11952971  0.27031741  0.91758148    -0.66900
O21         O  0.05100357  0.26068975  0.06485599    -0.79200
C22         C  0.08122177  0.13611097  0.98327848     0.84200
O23         O  0.08298100  0.17584572  0.02326012    -0.66400
Ni24       Ni  0.11180264  0.35182661  0.09378846     1.27400
Ni25       Ni  0.14865783  0.28014691  0.98146964     1.26100
H26         H  0.15736228  0.20978587  0.00338822     0.38800
O27         O  0.34523797  0.62897177  0.94086597    -0.81200
O28         O  0.41979339  0.83463551  0.98251735    -0.65900
O29         O  0.39119170  0.71222295  0.98448087    -1.12500
C30         C  0.30281187  0.79492986  0.11037456     1.05700
O31         O  0.40475943  0.88262399  0.06625773    -0.79100
O32         O  0.40208658  0.81795941  0.11672821    -0.66700
Ni33       Ni  0.38592826  0.65870749  0.91663007     1.34900
C34         C  0.39841170  0.77602763  0.11830350     0.84400
O35         O  0.44892568  0.74764001  0.94360298    -0.79600
O36         O  0.42649124  0.67963391  0.88240707    -0.89900
C37         C  0.42162794  0.87489733  0.02202560     0.84000
O38         O  0.35139947  0.69271231  0.89117115    -0.68100
O39         O  0.32715707  0.82827842  0.12639002    -0.87400
C40         C  0.35527122  0.73398075  0.88802768     0.84800
C41         C  0.45056911  0.71344835  0.89793721     1.06400
H42         H  0.34361983  0.80703832  0.00161006     0.38200
O43         O  0.36133253  0.79780939  0.02285339    -1.10000
O44         O  0.37498977  0.74497893  0.08973345    -0.66700
Ni45       Ni  0.34738787  0.73685945  0.02489110     1.26300
O46         O  0.37838417  0.76544183  0.91688039    -0.66900
O47         O  0.30374325  0.76229228  0.06374313    -0.79200
C48         C  0.32881495  0.63685189  0.98547788     0.84200
O49         O  0.33316887  0.67589521  0.02580466    -0.66400
Ni50       Ni  0.36616029  0.85093124  0.09145875     1.27400
Ni51       Ni  0.40531059  0.77327159  0.98249394     1.26100
H52         H  0.40894760  0.70294483  0.00561805     0.38800
O53         O  0.34753412  0.36869108  0.55253930    -0.81200
O54         O  0.41133542  0.15829715  0.51624575    -0.65900
O55         O  0.38942873  0.28152516  0.51103577    -1.12500
C56         C  0.30191645  0.20284672  0.38256116     1.05700
O57         O  0.39744788  0.11017680  0.43223114    -0.79100
O58         O  0.39897135  0.17388340  0.38015212    -0.66700
Ni59       Ni  0.38586967  0.33687455  0.57759464     1.34900
C60         C  0.39729065  0.21582152  0.37797827     0.84400
O61         O  0.44428262  0.24267956  0.55523759    -0.79600
O62         O  0.42448968  0.31451900  0.61219462    -0.89900
C63         C  0.41314794  0.11775087  0.47716912     0.84000
O64         O  0.34987981  0.30738831  0.60683812    -0.68100
O65         O  0.32442139  0.16734976  0.36837517    -0.87400
C66         C  0.35166767  0.26598688  0.61031863     0.84800
C67         C  0.44681573  0.27887596  0.59928034     1.06400
H68         H  0.33789505  0.19022089  0.49422175     0.38200
O69         O  0.35662694  0.19794432  0.47310479    -1.10000
O70         O  0.37463398  0.24862646  0.40574677    -0.66700
Ni71       Ni  0.34545772  0.25934635  0.46985336     1.26300
O72         O  0.37216381  0.23162935  0.57984339    -0.66900
O73         O  0.30222231  0.23585846  0.42907681    -0.79200
C74         C  0.33112315  0.36129095  0.50824523     0.84200
O75         O  0.33348031  0.32124802  0.46846105    -0.66400
Ni76       Ni  0.36103273  0.14342783  0.40529383     1.27400
Ni77       Ni  0.40047936  0.22007243  0.51467125     1.26100
H78         H  0.40824330  0.28874450  0.48962621     0.38800
O79         O  0.09566637  0.87197182  0.56337511    -0.81200
O80         O  0.16700267  0.66437588  0.51944148    -0.65900
O81         O  0.14177775  0.78867605  0.52005318    -1.12500
C82         C  0.05569032  0.70926375  0.38672425     1.05700
O83         O  0.15340410  0.61792848  0.43462811    -0.79100
O84         O  0.15410285  0.68385862  0.38477061    -0.66700
Ni85       Ni  0.13589014  0.84215837  0.58812498     1.34900
C86         C  0.15167826  0.72616489  0.38368976     0.84400
O87         O  0.19666232  0.75051729  0.56338036    -0.79600
O88         O  0.17592155  0.82123082  0.62246422    -0.89900
C89         C  0.16912158  0.62456309  0.47931635     0.84000
O90         O  0.10153987  0.80906657  0.61595271    -0.68100
O91         O  0.07949716  0.67519149  0.37228079    -0.87400
C92         C  0.10444867  0.76676962  0.61693146     0.84800
C93         C  0.19829541  0.78552567  0.60858779     1.06400
H94         H  0.09200552  0.69524110  0.49722273     0.38200
O95         O  0.11093441  0.70417022  0.47730278    -1.10000
O96         O  0.12930195  0.75833978  0.41330118    -0.66700
Ni97       Ni  0.09922360  0.76617051  0.47591500     1.26300
O98         O  0.12522672  0.73393250  0.58461164    -0.66900
O99         O  0.05653203  0.74312245  0.43276896    -0.79200
C100        C  0.08199680  0.86621293  0.51759334     0.84200
O101        O  0.08782917  0.82832844  0.47636992    -0.66400
Ni102      Ni  0.11670194  0.65139817  0.40847307     1.27400
Ni103      Ni  0.15406254  0.72676440  0.52086764     1.26100
H104        H  0.16076714  0.79779806  0.50038789     0.38800
C105        C  0.02659055  0.03112173  0.58903599    -0.18100
C106        C  0.00214905  0.06543791  0.58378070    -0.20300
C107        C  0.98060118  0.05436221  0.53730591     0.20400
C108        C  0.48346496  0.00812524  0.49581520    -0.03200
C109        C  0.00808143  0.97338100  0.50120187    -0.06300
C110        C  0.02978070  0.98495529  0.54803067     0.20600
C111        C  0.51114141  0.92723343  0.45959891     0.18800
C112        C  0.48953816  0.91613953  0.41315987    -0.17800
C113        C  0.46509265  0.95048837  0.40787459    -0.20000
C114        C  0.46196340  0.99673752  0.44883307     0.20300
C115        C  0.43826324  0.03204702  0.44327792    -0.33000
C116        C  0.43573225  0.07867553  0.48417673     0.01000
C117        C  0.45675024  0.08906990  0.53134997    -0.24300
C118        C  0.05414927  0.95016819  0.55313879    -0.28900
C119        C  0.05727658  0.90391628  0.51190193     0.06700
C120        C  0.03566137  0.89295561  0.46515570    -0.27600
H121        H  0.04299445  0.04071678  0.62524342     0.11400
H122        H  0.00015211  0.10075332  0.61608805     0.12500
H123        H  0.49179583  0.88099040  0.38067937     0.11600
H124        H  0.44886506  0.94099200  0.37151342     0.10800
H125        H  0.42229302  0.02345332  0.40678626     0.16200
H126        H  0.95526377  0.12474382  0.56322516     0.12100
H127        H  0.07062644  0.95910552  0.58922053     0.15000
H128        H  0.53753459  0.85738851  0.43313965     0.14800
C129        C  0.20004202  0.44968713  0.42664996    -0.18100
C130        C  0.22315204  0.41319684  0.43004288    -0.20300
C131        C  0.25365538  0.42501342  0.46477129     0.20400
C132        C  0.26063180  0.47408693  0.49693519    -0.03200
C133        C  0.23735792  0.51097053  0.49335097    -0.06300
C134        C  0.20704155  0.49875266  0.45776148     0.20600
C135        C  0.24476060  0.56006780  0.52482526     0.18800
C136        C  0.27520443  0.57188157  0.55963015    -0.17800
C137        C  0.29791780  0.53539011  0.56371700    -0.20000
C138        C  0.29097303  0.48636867  0.53245826     0.20300
C139        C  0.31392953  0.44950167  0.53589235    -0.33000
C140        C  0.30745577  0.40043140  0.50350944     0.01000
C141        C  0.27721972  0.38864095  0.46796280    -0.24300
C142        C  0.18458841  0.53579016  0.45346250    -0.28900
C143        C  0.19186698  0.58492945  0.48465722     0.06700
C144        C  0.22196917  0.59654100  0.52039241    -0.27600
H145        H  0.17683872  0.43951987  0.39929968     0.11400
H146        H  0.21724143  0.37567290  0.40527252     0.12500
H147        H  0.28166243  0.60942456  0.58344017     0.11600
H148        H  0.32115151  0.54557511  0.59101574     0.10800
H149        H  0.33706200  0.45903411  0.56342808     0.16200
H150        H  0.27147388  0.35098499  0.44365367     0.12100
H151        H  0.16147621  0.52640899  0.42589673     0.15000
H152        H  0.22833494  0.63418160  0.54373260     0.14800
C153        C  0.54061018  0.65337944  0.68511307    -0.18100
C154        C  0.51925229  0.64556971  0.72470124    -0.20300
C155        C  0.51102299  0.68411811  0.77324105     0.20400
C156        C  0.52539481  0.73069579  0.78239084    -0.03200
C157        C  0.04601875  0.73886270  0.74192576    -0.06300
C158        C  0.55353917  0.70007080  0.69286027     0.20600
C159        C  0.05838665  0.78612230  0.75018188     0.18800
C160        C  0.05173051  0.82424366  0.79960541    -0.17800
C161        C  0.03220552  0.81585992  0.84011078    -0.20000
C162        C  0.01826086  0.76954726  0.83140802     0.20300
C163        C  0.99611024  0.76205745  0.87019392    -0.33000
C164        C  0.47952149  0.71666771  0.86024079     0.01000
C165        C  0.48773145  0.67746129  0.81199675    -0.24300
C166        C  0.07319150  0.70892613  0.65220426    -0.28900
C167        C  0.08414963  0.75641160  0.65940352     0.06700
C168        C  0.07687127  0.79462378  0.70875228    -0.27600
H169        H  0.54627766  0.62307448  0.64787373     0.11400
H170        H  0.50879820  0.60945854  0.71706217     0.12500
H171        H  0.06139874  0.86063492  0.80681746     0.11600
H172        H  0.02735507  0.84580924  0.87792654     0.10800
H173        H  0.98999293  0.79271339  0.90698254     0.16200
H174        H  0.47526874  0.64231310  0.80402898     0.12100
H175        H  0.57907919  0.67921473  0.61450589     0.15000
H176        H  0.08604299  0.83109067  0.71519413     0.14800
C177        C  0.51307654  0.66439195  0.19879843    -0.18100
C178        C  0.49192782  0.67488839  0.16092352    -0.20300
C179        C  0.46611933  0.71290592  0.17757013     0.20400
C180        C  0.46109409  0.73998574  0.23305734    -0.03200
C181        C  0.98207817  0.72893367  0.27124890    -0.06300
C182        C  0.50862483  0.69148946  0.25405168     0.20600
C183        C  0.97705451  0.75615928  0.32661582     0.18800
C184        C  0.95042903  0.79312997  0.34338251    -0.17800
C185        C  0.93006538  0.80456454  0.30561301    -0.20000
C186        C  0.93553046  0.77865651  0.25041536     0.20300
C187        C  0.41590974  0.79077894  0.21231642    -0.33000
C188        C  0.42060599  0.76379877  0.15718916     0.01000
C189        C  0.44537401  0.72457072  0.13989354    -0.24300
C190        C  0.53115155  0.68305136  0.29224323    -0.28900
C191        C  0.02768244  0.71187951  0.34743574     0.06700
C192        C  0.99967057  0.74730063  0.36422263    -0.27600
H193        H  0.53325872  0.63542607  0.18481642     0.11400
H194        H  0.49611378  0.65366325  0.11854813     0.12500
H195        H  0.94600482  0.81407710  0.38577439     0.11600
H196        H  0.91025788  0.83399096  0.31960241     0.10800
H197        H  0.89635771  0.82059156  0.22545915     0.16200
H198        H  0.44881851  0.70375261  0.09723407     0.12100
H199        H  0.55253760  0.65561381  0.27869902     0.15000
H200        H  0.99643369  0.76952595  0.40654830     0.14800
C201        C  0.30287938  0.84607885  0.80735686    -0.18100
C202        C  0.28097342  0.85347925  0.76806621    -0.20300
C203        C  0.26358101  0.81415899  0.72800443     0.20400
C204        C  0.26836100  0.76697095  0.72785004    -0.03200
C205        C  0.28989888  0.75963923  0.76785074    -0.06300
C206        C  0.30749277  0.79928479  0.80771649     0.21800
C207        C  0.29359571  0.71251175  0.76800366     0.18800
C208        C  0.27596133  0.67321190  0.72858867    -0.17800
C209        C  0.25480297  0.68043952  0.68904353    -0.20000
C210        C  0.25112941  0.72699520  0.68814896     0.20300
C211        C  0.22981216  0.73415593  0.64869500    -0.33000
C212        C  0.22449894  0.78076153  0.64837203     0.01000
C213        C  0.24114200  0.82095167  0.68850701    -0.24300
C214        C  0.32913456  0.79126611  0.84716932    -0.28900
C215        C  0.33268785  0.74415859  0.84747421     0.06700
C216        C  0.31469218  0.70523079  0.80765368    -0.27600
H217        H  0.31603921  0.87702962  0.83767540     0.11400
H218        H  0.27766273  0.88997724  0.76900471     0.12500
H219        H  0.27842973  0.63686472  0.72844593     0.11600
H220        H  0.24101557  0.64965324  0.65939957     0.10800
H221        H  0.21580816  0.70340188  0.61937584     0.16200
H222        H  0.23660655  0.85710923  0.68896655     0.12100
H223        H  0.34283674  0.82154422  0.87772149     0.15000
H224        H  0.31735322  0.66871810  0.80700736     0.14800
C225        C  0.21537818  0.69209955  0.15893657    -0.18100
C226        C  0.19662346  0.68081334  0.19818903    -0.20300
C227        C  0.19499314  0.71451182  0.25139341     0.20400
C228        C  0.21191579  0.76035687  0.26504113    -0.03200
C229        C  0.23148315  0.77137390  0.22558951    -0.06300
C230        C  0.23331653  0.73693282  0.17244348     0.20600
C231        C  0.24993294  0.81627855  0.23961272     0.18800
C232        C  0.24740162  0.85046124  0.29253873    -0.17800
C233        C  0.22721809  0.84002279  0.33137749    -0.20000
C234        C  0.20969013  0.79491296  0.31820322     0.20300
C235        C  0.19008084  0.78361164  0.35715463    -0.33000
C236        C  0.17390166  0.73759664  0.34394216     0.01000
C237        C  0.17666224  0.70319050  0.29113129    -0.24300
C238        C  0.25428778  0.74699648  0.13414447    -0.28900
C239        C  0.27471484  0.79036476  0.14841730     0.06700
C240        C  0.27162599  0.82541664  0.20099806    -0.27600
H241        H  0.21649138  0.66535087  0.11820271     0.11400
H242        H  0.18354327  0.64561596  0.18697067     0.12500
H243        H  0.26128896  0.88515298  0.30402689     0.11600
H244        H  0.22577517  0.86698798  0.37195799     0.10800
H245        H  0.18772721  0.81027722  0.39783784     0.16200
H246        H  0.16351787  0.66806979  0.28064542     0.12100
H247        H  0.25640437  0.71952132  0.09387828     0.15000
H248        H  0.28715188  0.85893557  0.21242588     0.14800
C249        C  0.49310795  0.34150455  0.78570109    -0.18100
C250        C  0.51365415  0.33497870  0.82649865    -0.20300
C251        C  0.53657424  0.29427943  0.81494760     0.20400
C252        C  0.03916567  0.26013177  0.76151414    -0.03200
C253        C  0.51879113  0.26705224  0.72026461    -0.06300
C254        C  0.49535986  0.30765593  0.73257028     0.20600
C255        C  0.02124237  0.23275185  0.66697625     0.18800
C256        C  0.04461474  0.19245319  0.65521059    -0.17800
C257        C  0.06453307  0.18533990  0.69613605    -0.20000
C258        C  0.06164348  0.21864374  0.74942074     0.20300
C259        C  0.08062591  0.21100524  0.79087983    -0.33000
C260        C  0.07820666  0.24481997  0.84403885     0.01000
C261        C  0.05666484  0.28679369  0.85582932    -0.24300
C262        C  0.47367488  0.31289066  0.69193604    -0.28900
C263        C  0.47471784  0.27777571  0.63912612     0.06700
C264        C  0.49933142  0.23842268  0.62677450    -0.27600
H265        H  0.47517204  0.37283828  0.79581268     0.11400
H266        H  0.51127331  0.36148032  0.86722259     0.12500
H267        H  0.04700386  0.16596832  0.61447418     0.11600
H268        H  0.08193749  0.15352233  0.68617918     0.10800
H269        H  0.09782952  0.17905024  0.78174866     0.16200
H270        H  0.05498523  0.31292260  0.89687063     0.12100
H271        H  0.45475805  0.34326867  0.70211154     0.15000
H272        H  0.00038952  0.21106115  0.58633551     0.14800
C273        C  0.98452714  0.32353245  0.33568865    -0.18100
C274        C  0.00493140  0.33537145  0.29808830    -0.20300
C275        C  0.00375602  0.30543904  0.24331873     0.20400
C276        C  0.98202981  0.26291679  0.22634076    -0.03200
C277        C  0.46204777  0.25046447  0.26435710    -0.06300
C278        C  0.96296635  0.28125815  0.31922686     0.20600
C279        C  0.44113021  0.20723164  0.24743280     0.18800
C280        C  0.44002740  0.17719526  0.19272779    -0.17800
C281        C  0.45944906  0.18987316  0.15499653    -0.20000
C282        C  0.48056866  0.23252459  0.17145994     0.20300
C283        C  0.50109980  0.24447186  0.13409769    -0.33000
C284        C  0.02400531  0.28576042  0.15078841     0.01000
C285        C  0.02464582  0.31657867  0.20544233    -0.24300
C286        C  0.44201365  0.26942289  0.35649480    -0.28900
C287        C  0.42122301  0.22648086  0.33972267     0.06700
C288        C  0.42132160  0.19514448  0.28544635    -0.27600
H289        H  0.98569274  0.34738326  0.37769506     0.11400
H290        H  0.02161442  0.36798925  0.31185427     0.12500
H291        H  0.42406999  0.14395065  0.17909948     0.11600
H292        H  0.45827991  0.16602250  0.11297518     0.10800
H293        H  0.50048347  0.22017288  0.09219387     0.16200
H294        H  0.04234364  0.34827684  0.21881963     0.12100
H295        H  0.94184153  0.29346189  0.39851782     0.15000
H296        H  0.40485207  0.16230084  0.27262901     0.14800
C297        C  0.28735562  0.15875626  0.68550313    -0.18100
C298        C  0.26585216  0.15281544  0.72590778    -0.20300
C299        C  0.25605915  0.19307888  0.77194347     0.20400
C300        C  0.26863264  0.23971558  0.77777859    -0.03200
C301        C  0.28991143  0.24578831  0.73674686    -0.06300
C302        C  0.29917655  0.20511978  0.69023303     0.20600
C303        C  0.30136542  0.29265820  0.74190824     0.18800
C304        C  0.29241462  0.33282077  0.78852318    -0.17800
C305        C  0.27157535  0.32675340  0.82932620    -0.20000
C306        C  0.25925124  0.28046523  0.82403300     0.20300
C307        C  0.23684688  0.27446192  0.86352402    -0.33000
C308        C  0.22297472  0.22837185  0.85709406     0.01000
C309        C  0.23313368  0.18772775  0.81152234    -0.24300
C310        C  0.31965122  0.21165672  0.64903555    -0.28900
C311        C  0.33021087  0.25846938  0.65335218     0.06700
C312        C  0.32121532  0.29866904  0.70013340    -0.27600
H313        H  0.29429659  0.12713751  0.65016619     0.11400
H314        H  0.25655974  0.11674832  0.72088412     0.12500
H315        H  0.30122091  0.36900119  0.79319770     0.11600
H316        H  0.26468795  0.35834108  0.86472651     0.10800
H317        H  0.22886211  0.30618284  0.89817872     0.16200
H318        H  0.22256310  0.15214830  0.80630179     0.12100
H319        H  0.32674914  0.18051263  0.61323577     0.15000
H320        H  0.32996403  0.33475701  0.70425967     0.14800
C321        C  0.25988326  0.31280682  0.29828871    -0.18100
C322        C  0.23911065  0.32288331  0.26013203    -0.20300
C323        C  0.21655705  0.28702905  0.22415280     0.20400
C324        C  0.21529663  0.24024757  0.22597131    -0.03200
C325        C  0.23657501  0.22990252  0.26427468    -0.06300
C326        C  0.25855209  0.26665020  0.30084224     0.20600
C327        C  0.23579215  0.18304678  0.26616746     0.18800
C328        C  0.21351138  0.14706447  0.22955980    -0.17800
C329        C  0.19196075  0.15755309  0.19197682    -0.20000
C330        C  0.19256135  0.20409172  0.18997014     0.20300
C331        C  0.17060646  0.21540402  0.15314056    -0.33000
C332        C  0.17141578  0.26234453  0.15169242     0.01000
C333        C  0.19488929  0.29758126  0.18697133    -0.24300
C334        C  0.27891240  0.25677437  0.33947131    -0.28900
C335        C  0.27825469  0.21057328  0.34206297     0.06700
C336        C  0.25721019  0.17335541  0.30475274    -0.27600
H337        H  0.27684057  0.34123376  0.32605548     0.11400
H338        H  0.24039773  0.35891637  0.25912707     0.12500
H339        H  0.21251073  0.11092009  0.23027780     0.11600
H340        H  0.17473926  0.12927483  0.16455038     0.10800
H341        H  0.15270114  0.18783788  0.12602528     0.16200
H342        H  0.19579455  0.33379621  0.18638500     0.12100
H343        H  0.29621924  0.28492773  0.36696892     0.15000
H344        H  0.25712567  0.13748698  0.30632700     0.14800
C345        C  0.48675133  0.03288917  0.10187051    -0.18100
C346        C  0.50923270  0.06903390  0.09641523    -0.20300
C347        C  0.52282696  0.06449415  0.04574417     0.20400
C348        C  0.01361083  0.02317078  0.00009767    -0.03200
C349        C  0.49068206  0.98681003  0.00557269    -0.06300
C350        C  0.47724446  0.99165914  0.05671529     0.20600
C351        C  0.98107064  0.94578802  0.95981488     0.18800
C352        C  0.99418370  0.94167779  0.90906123    -0.17800
C353        C  0.01713875  0.97742250  0.90371406    -0.20000
C354        C  0.02708482  0.01828984  0.94894728     0.20300
C355        C  0.04985550  0.05457967  0.94378413    -0.33000
C356        C  0.05896609  0.09619963  0.98899948     0.01000
C357        C  0.04524371  0.10069721  0.03988838    -0.24300
C358        C  0.45447873  0.95533046  0.06179830    -0.28900
C359        C  0.44490275  0.91403249  0.01641250     0.06700
C360        C  0.45846746  0.90966841  0.96553894    -0.27600
H361        H  0.47666371  0.03730469  0.14143755     0.11400
H362        H  0.51596304  0.10060804  0.13188283     0.12500
H363        H  0.98664081  0.91078824  0.87338451     0.11600
H364        H  0.02696735  0.97319764  0.86408171     0.10800
H365        H  0.05987867  0.05081782  0.90437241     0.16200
H366        H  0.55184330  0.13258076  0.07514906     0.12100
H367        H  0.44448595  0.95906242  0.10121668     0.15000
H368        H  0.95134283  0.87816724  0.93017955     0.14800
C369        C  0.22585279  0.45606737  0.90969410    -0.18100
C370        C  0.24954202  0.49114752  0.90431657    -0.20300
C371        C  0.26375518  0.52836076  0.94996398     0.20400
C372        C  0.25316159  0.53089236  0.00156997    -0.03200
C373        C  0.22924878  0.49539415  0.00700633    -0.06300
C374        C  0.21592171  0.45749378  0.96082139     0.20600
C375        C  0.21920578  0.49739865  0.05861413     0.18800
C376        C  0.23265552  0.53534056  0.10425970    -0.17800
C377        C  0.25621254  0.57054716  0.09887948    -0.20000
C378        C  0.26686316  0.56844563  0.04775361     0.20300
C379        C  0.29132324  0.60285877  0.04206603    -0.33000
C380        C  0.30296302  0.59990379  0.99075942     0.01000
C381        C  0.28865640  0.56269315  0.94489383    -0.24300
C382        C  0.19341172  0.42126054  0.96650386    -0.28900
C383        C  0.18373426  0.42233325  0.01783241     0.06700
C384        C  0.19643177  0.46104489  0.06369486    -0.27600
H385        H  0.21564554  0.42742647  0.87377890     0.11400
H386        H  0.25709554  0.48882004  0.86437773     0.12500
H387        H  0.22519804  0.53758247  0.14420237     0.11600
H388        H  0.26639147  0.59921556  0.13479524     0.10800
H389        H  0.30171196  0.63161962  0.07777565     0.16200
H390        H  0.29674641  0.56056605  0.90520458     0.12100
H391        H  0.18378266  0.39183560  0.93079114     0.15000
H392        H  0.18938175  0.46227166  0.10341197     0.14800
O393        O  0.59705800  0.12993289  0.93872672    -0.81200
O394        O  0.65855234  0.34302516  0.98207230    -0.65900
O395        O  0.63844204  0.21754959  0.98269164    -1.12500
C396        C  0.55073198  0.29218989  0.11227196     1.05700
O397        O  0.64854428  0.38634929  0.06875525    -0.79100
O398        O  0.64984827  0.31765611  0.11357564    -0.66700
Ni399      Ni  0.63494499  0.16362166  0.91464926     1.34900
C400        C  0.64688992  0.27565623  0.11524761     0.84400
O401        O  0.69207601  0.25932574  0.94023322    -0.79600
O402        O  0.67326434  0.18803358  0.88088055    -0.89900
C403        C  0.66206297  0.38177736  0.02317256     0.84000
O404        O  0.59838937  0.19381419  0.88722985    -0.68100
O405        O  0.57477394  0.32598087  0.12854395    -0.87400
C406        C  0.59943562  0.23614638  0.88616626     0.84800
C407        C  0.69500561  0.22438778  0.89536391     1.06400
H408        H  0.58646819  0.31028893  0.00503360     0.38200
O409        O  0.60545255  0.30078319  0.02427866    -1.10000
O410        O  0.62265859  0.24530191  0.08809482    -0.66700
Ni411      Ni  0.59441677  0.23826843  0.02424816     1.26300
O412        O  0.61953174  0.27032687  0.91758958    -0.66900
O413        O  0.55099904  0.26070488  0.06486136    -0.79200
C414        C  0.58121632  0.13612458  0.98329275     0.84200
O415        O  0.58297696  0.17585953  0.02327444    -0.66400
Ni416      Ni  0.61179611  0.35184060  0.09379519     1.27400
Ni417      Ni  0.64865686  0.28016048  0.98148147     1.26100
H418        H  0.65736013  0.20980223  0.00340619     0.38800
O419        O  0.84522308  0.62899119  0.94088004    -0.81200
O420        O  0.91978878  0.83464296  0.98251808    -0.65900
O421        O  0.89118511  0.71223477  0.98448995    -1.12500
C422        C  0.80281441  0.79494286  0.11038983     1.05700
O423        O  0.90474862  0.88264010  0.06625337    -0.79100
O424        O  0.90209111  0.81797651  0.11672561    -0.66700
Ni425      Ni  0.88591817  0.65871694  0.91664186     1.34900
C426        C  0.89841702  0.77604645  0.11830577     0.84400
O427        O  0.94891793  0.74764558  0.94360705    -0.79600
O428        O  0.92648405  0.67963546  0.88241664    -0.89900
C429        C  0.92161908  0.87490844  0.02202161     0.84000
O430        O  0.85139273  0.69272112  0.89117785    -0.68100
O431        O  0.82716109  0.82828948  0.12640591    -0.87400
C432        C  0.85526380  0.73398902  0.88803349     0.84800
C433        C  0.95056153  0.71345049  0.89794380     1.06400
H434        H  0.84361456  0.80705084  0.00161687     0.38200
O435        O  0.86132787  0.79782277  0.02286005    -1.10000
O436        O  0.87499033  0.74499912  0.08974506    -0.66700
Ni437      Ni  0.84738403  0.73687531  0.02490317     1.26300
O438        O  0.87837673  0.76545066  0.91688548    -0.66900
O439        O  0.80374135  0.76231210  0.06375476    -0.79200
C440        C  0.82880218  0.63687335  0.98549377     0.84200
O441        O  0.83316437  0.67591319  0.02582231    -0.66400
Ni442      Ni  0.86615720  0.85094541  0.09146475     1.27400
Ni443      Ni  0.90530451  0.77328126  0.98249873     1.26100
H444        H  0.90894170  0.70295691  0.00562650     0.38800
O445        O  0.84753034  0.36869493  0.55256026    -0.81200
O446        O  0.91132751  0.15829965  0.51625163    -0.65900
O447        O  0.88943093  0.28153090  0.51104582    -1.12500
C448        C  0.80191707  0.20287055  0.38256943     1.05700
O449        O  0.89743247  0.11017778  0.43224095    -0.79100
O450        O  0.89896741  0.17388583  0.38015951    -0.66700
Ni451      Ni  0.88587459  0.33688101  0.57760450     1.34900
C452        C  0.89729164  0.21582411  0.37798473     0.84400
O453        O  0.94428253  0.24267521  0.55523948    -0.79600
O454        O  0.92450348  0.31452643  0.61218991    -0.89900
C455        C  0.91313372  0.11775113  0.47717824     0.84000
O456        O  0.84989263  0.30739861  0.60686663    -0.68100
O457        O  0.82441750  0.16736854  0.36838452    -0.87400
C458        C  0.85167632  0.26599366  0.61033891     0.84800
C459        C  0.94682486  0.27887818  0.59927479     1.06400
H460        H  0.83788882  0.19023612  0.49423232     0.38200
O461        O  0.85662199  0.19795561  0.47311420    -1.10000
O462        O  0.87463912  0.24863411  0.40575572    -0.66700
Ni463      Ni  0.84546078  0.25936006  0.46986242     1.26300
O464        O  0.87216432  0.23163268  0.57985212    -0.66900
O465        O  0.80222466  0.23588206  0.42908495    -0.79200
C466        C  0.83112724  0.36130131  0.50826190     0.84200
O467        O  0.83349331  0.32126429  0.46847124    -0.66400
Ni468      Ni  0.86102361  0.14343814  0.40530305     1.27400
Ni469      Ni  0.90047666  0.22007588  0.51467795     1.26100
H470        H  0.90824688  0.28874855  0.48963694     0.38800
O471        O  0.59567586  0.87196867  0.56336224    -0.81200
O472        O  0.66700365  0.66436953  0.51943128    -0.65900
O473        O  0.64178324  0.78866913  0.52004118    -1.12500
C474        C  0.55567786  0.70926094  0.38673473     1.05700
O475        O  0.65339542  0.61791897  0.43462260    -0.79100
O476        O  0.65408573  0.68383285  0.38474884    -0.66700
Ni477      Ni  0.63589776  0.84215264  0.58811199     1.34900
C478        C  0.65167101  0.72614175  0.38367361     0.84400
O479        O  0.69666812  0.75050858  0.56336373    -0.79600
O480        O  0.67592776  0.82122198  0.62244915    -0.89900
C481        C  0.66912012  0.62455635  0.47930652     0.84000
O482        O  0.60154598  0.80906412  0.61594236    -0.68100
O483        O  0.57947693  0.67517929  0.37229096    -0.87400
C484        C  0.60445589  0.76676855  0.61692477     0.84800
C485        C  0.69830124  0.78551652  0.60857172     1.06400
H486        H  0.59200388  0.69524543  0.49722838     0.38200
O487        O  0.61093222  0.70416739  0.47730175    -1.10000
O488        O  0.62930240  0.75832452  0.41329088    -0.66700
Ni489      Ni  0.59922670  0.76616761  0.47590939     1.26300
O490        O  0.62523410  0.73393090  0.58460632    -0.66900
O491        O  0.55653093  0.74312746  0.43277285    -0.79200
C492        C  0.58200918  0.86621068  0.51757916     0.84200
O493        O  0.58784019  0.82832475  0.47635736    -0.66400
Ni494      Ni  0.61668770  0.65138696  0.40847508     1.27400
Ni495      Ni  0.65406517  0.72675779  0.52085722     1.26100
H496        H  0.66077226  0.79778904  0.50037356     0.38800
C497        C  0.52661116  0.03112240  0.58901783    -0.18100
C498        C  0.50216950  0.06543868  0.58376364    -0.20300
C499        C  0.48062252  0.05436439  0.53728843     0.20400
C500        C  0.98344227  0.00812173  0.49583480    -0.03200
C501        C  0.50810353  0.97338394  0.50118172    -0.06300
C502        C  0.52980135  0.98495666  0.54801162     0.20600
C503        C  0.01111875  0.92722962  0.45962026     0.18800
C504        C  0.98951211  0.91613280  0.41318385    -0.17800
C505        C  0.96506675  0.95048152  0.40789768    -0.20000
C506        C  0.96193967  0.99673258  0.44885330     0.20300
C507        C  0.93824113  0.03204263  0.44329529    -0.33000
C508        C  0.93571298  0.07867327  0.48419044     0.01000
C509        C  0.95673041  0.08906812  0.53136471    -0.24300
C510        C  0.55416769  0.95016821  0.55312077    -0.28900
C511        C  0.55729355  0.90391612  0.51188445     0.06700
C512        C  0.53568116  0.89295745  0.46513596    -0.27600
H513        H  0.54301414  0.04071621  0.62522599     0.11400
H514        H  0.50017062  0.10075240  0.61607309     0.12500
H515        H  0.99176645  0.88098111  0.38070628     0.11600
H516        H  0.94883750  0.94098352  0.37153785     0.10800
H517        H  0.92227087  0.02344815  0.40680358     0.16200
H518        H  0.45528187  0.12474439  0.56321233     0.12100
H519        H  0.57064346  0.95910413  0.58920363     0.15000
H520        H  0.03751515  0.85738660  0.43315956     0.14800
C521        C  0.70005311  0.44968478  0.42664136    -0.18100
C522        C  0.72316177  0.41319695  0.43004281    -0.20300
C523        C  0.75366216  0.42501715  0.46477658     0.20400
C524        C  0.76063771  0.47409179  0.49693638    -0.03200
C525        C  0.73736505  0.51097291  0.49334380    -0.06300
C526        C  0.70705073  0.49875126  0.45775043     0.20600
C527        C  0.74476575  0.56007121  0.52481564     0.18800
C528        C  0.77520706  0.57188874  0.55962530    -0.17800
C529        C  0.79791957  0.53539960  0.56371987    -0.20000
C530        C  0.79097613  0.48637687  0.53246478     0.20300
C531        C  0.81393115  0.44951166  0.53590723    -0.33000
C532        C  0.80745867  0.40044050  0.50352665     0.01000
C533        C  0.77722463  0.38864697  0.46797681    -0.24300
C534        C  0.68459610  0.53578580  0.45344796    -0.28900
C535        C  0.69187093  0.58492578  0.48464344     0.06700
C536        C  0.72197325  0.59654146  0.52037857    -0.27600
H537        H  0.67685165  0.43951475  0.39928783     0.11400
H538        H  0.71725212  0.37567197  0.40527541     0.12500
H539        H  0.78166259  0.60943275  0.58343497     0.11600
H540        H  0.82115102  0.54558728  0.59102260     0.10800
H541        H  0.83706203  0.45904604  0.56344579     0.16200
H542        H  0.77147929  0.35099020  0.44367103     0.12100
H543        H  0.66148449  0.52640160  0.42588113     0.15000
H544        H  0.72833682  0.63418291  0.54371820     0.14800
C545        C  0.04060938  0.65337722  0.68512404    -0.18100
C546        C  0.01925121  0.64556744  0.72471213    -0.20300
C547        C  0.01101765  0.68411713  0.77324898     0.20400
C548        C  0.02538492  0.73069641  0.78239530    -0.03200
C549        C  0.54602902  0.73886211  0.74192151    -0.06300
C550        C  0.05353403  0.70006985  0.69286795     0.20600
C551        C  0.55840201  0.78612033  0.75018097     0.18800
C552        C  0.55175090  0.82423973  0.79960798    -0.17800
C553        C  0.53222467  0.81585600  0.84011272    -0.20000
C554        C  0.51827453  0.76954508  0.83140654     0.20300
C555        C  0.49612224  0.76205542  0.87019165    -0.33000
C556        C  0.97951354  0.71666817  0.86024655     0.01000
C557        C  0.98772649  0.67746013  0.81200523    -0.24300
C558        C  0.57319570  0.70892732  0.65219622    -0.28900
C559        C  0.58415827  0.75641172  0.65939848     0.06700
C560        C  0.57688596  0.79462239  0.70875083    -0.27600
H561        H  0.04628061  0.62307108  0.64788730     0.11400
H562        H  0.00880062  0.60945510  0.71707552     0.12500
H563        H  0.56142331  0.86062976  0.80682285     0.11600
H564        H  0.52737728  0.84580433  0.87793045     0.10800
H565        H  0.49000737  0.79270998  0.90698264     0.16200
H566        H  0.97526670  0.64231073  0.80404019     0.12100
H567        H  0.07907940  0.67921239  0.61451678     0.15000
H568        H  0.58606150  0.83108814  0.71519454     0.14800
C569        C  0.01314324  0.66446370  0.19877232    -0.18100
C570        C  0.99199480  0.67496579  0.16090086    -0.20300
C571        C  0.96616179  0.71295418  0.17755478     0.20400
C572        C  0.96111347  0.73999997  0.23304503    -0.03200
C573        C  0.48205760  0.72892427  0.27126527    -0.06300
C574        C  0.00866791  0.69152717  0.25402918     0.20600
C575        C  0.47705582  0.75618221  0.32662896     0.18800
C576        C  0.45045162  0.79317991  0.34338980    -0.17800
C577        C  0.43009119  0.80461154  0.30561558    -0.20000
C578        C  0.43553623  0.77867157  0.25041989     0.20300
C579        C  0.91589900  0.79076676  0.21231763    -0.33000
C580        C  0.92061724  0.76381874  0.15718716     0.01000
C581        C  0.94541354  0.72462217  0.13988276    -0.24300
C582        C  0.03119255  0.68308437  0.29222005    -0.28900
C583        C  0.52766480  0.71187750  0.34745328     0.06700
C584        C  0.49967282  0.74732695  0.36423674    -0.27600
H585        H  0.03334344  0.63552046  0.18478533     0.11400
H586        H  0.99619906  0.65376724  0.11852301     0.12500
H587        H  0.44604275  0.81415042  0.38577975     0.11600
H588        H  0.41030208  0.83406018  0.31959943     0.10800
H589        H  0.39638874  0.82062706  0.22545186     0.16200
H590        H  0.94887567  0.70382955  0.09722075     0.12100
H591        H  0.05259490  0.65566968  0.27867304     0.15000
H592        H  0.49645343  0.76957655  0.40655843     0.14800
C593        C  0.80287854  0.84607780  0.80734523    -0.18100
C594        C  0.78097512  0.85347514  0.76805053    -0.20300
C595        C  0.76358125  0.81415377  0.72799237     0.20400
C596        C  0.76835581  0.76696794  0.72784666    -0.03200
C597        C  0.78989066  0.75963958  0.76785201    -0.06300
C598        C  0.80748750  0.79928592  0.80771283     0.21800
C599        C  0.79358271  0.71251455  0.76801334     0.18800
C600        C  0.77594602  0.67321382  0.72860251    -0.17800
C601        C  0.75479152  0.68043781  0.68905157    -0.20000
C602        C  0.75112297  0.72699108  0.68814848     0.20300
C603        C  0.72981011  0.73414865  0.64868847    -0.33000
C604        C  0.72450261  0.78075234  0.64835745     0.01000
C605        C  0.74114649  0.82094341  0.68848959    -0.24300
C606        C  0.82912889  0.79127010  0.84716775    -0.28900
C607        C  0.83267888  0.74416480  0.84747982     0.06700
C608        C  0.81467844  0.70523662  0.80766587    -0.27600
H609        H  0.81604041  0.87702916  0.83766008     0.11400
H610        H  0.77766821  0.88997149  0.76898232     0.12500
H611        H  0.77841093  0.63686846  0.72846616     0.11600
H612        H  0.74100424  0.64965045  0.65940882     0.10800
H613        H  0.71580474  0.70339451  0.61937144     0.16200
H614        H  0.73661480  0.85709959  0.68894279     0.12100
H615        H  0.84283415  0.82154859  0.87771510     0.15000
H616        H  0.81733609  0.66872551  0.80702546     0.14800
C617        C  0.71539952  0.69208535  0.15893781    -0.18100
C618        C  0.69664487  0.68079247  0.19818567    -0.20300
C619        C  0.69500736  0.71448961  0.25139014     0.20400
C620        C  0.71192507  0.76033843  0.26504295    -0.03200
C621        C  0.73149358  0.77136141  0.22559660    -0.06300
C622        C  0.73333222  0.73692285  0.17245015     0.20600
C623        C  0.74993732  0.81627090  0.23962481     0.18800
C624        C  0.74739939  0.85045169  0.29255084    -0.17800
C625        C  0.72721424  0.84000745  0.33138413    -0.20000
C626        C  0.70969153  0.79489369  0.31820431     0.20300
C627        C  0.69007802  0.78358894  0.35714918    -0.33000
C628        C  0.67390127  0.73757207  0.34393155     0.01000
C629        C  0.67667185  0.70316493  0.29112239    -0.24300
C630        C  0.75430150  0.74699446  0.13415529    -0.28900
C631        C  0.77472195  0.79036837  0.14843257     0.06700
C632        C  0.77162959  0.82541669  0.20101438    -0.27600
H633        H  0.71651589  0.66533955  0.11820276     0.11400
H634        H  0.68356866  0.64559223  0.18696307     0.12500
H635        H  0.76128181  0.88514702  0.30404285     0.11600
H636        H  0.72576507  0.86697188  0.37196451     0.10800
H637        H  0.68771780  0.81025457  0.39783144     0.16200
H638        H  0.66353041  0.66804200  0.28063255     0.12100
H639        H  0.75642113  0.71952159  0.09388814     0.15000
H640        H  0.78715057  0.85893965  0.21244523     0.14800
C641        C  0.99312001  0.34150885  0.78568800    -0.18100
C642        C  0.01366002  0.33497875  0.82648805    -0.20300
C643        C  0.03657807  0.29427793  0.81493851     0.20400
C644        C  0.53915724  0.26013045  0.76152425    -0.03200
C645        C  0.01880409  0.26705630  0.72025258    -0.06300
C646        C  0.99537479  0.30766164  0.73255703     0.20600
C647        C  0.52122854  0.23274777  0.66698835     0.18800
C648        C  0.54460184  0.19244998  0.65522141    -0.17800
C649        C  0.56452221  0.18533733  0.69614544    -0.20000
C650        C  0.56163594  0.21864298  0.74942961     0.20300
C651        C  0.58062336  0.21100736  0.79088668    -0.33000
C652        C  0.57820960  0.24482547  0.84404468     0.01000
C653        C  0.55666733  0.28679920  0.85583588    -0.24300
C654        C  0.97369211  0.31289787  0.69192232    -0.28900
C655        C  0.97473234  0.27778050  0.63911414     0.06700
C656        C  0.99934519  0.23842653  0.62676216    -0.27600
H657        H  0.97518529  0.37284360  0.79579819     0.11400
H658        H  0.01127599  0.36147830  0.86721261     0.12500
H659        H  0.54699081  0.16596579  0.61448468     0.11600
H660        H  0.58192709  0.15352008  0.68618741     0.10800
H661        H  0.59782673  0.17905202  0.78175445     0.16200
H662        H  0.55499133  0.31293053  0.89687633     0.12100
H663        H  0.95477633  0.34327697  0.70209764     0.15000
H664        H  0.50037753  0.21105865  0.58634721     0.14800
C665        C  0.48452660  0.32353527  0.33569289    -0.18100
C666        C  0.50493053  0.33537653  0.29809390    -0.20300
C667        C  0.50375408  0.30544682  0.24332350     0.20400
C668        C  0.48202697  0.26292537  0.22634310    -0.03200
C669        C  0.96205047  0.25045786  0.26435649    -0.06300
C670        C  0.46296490  0.28126168  0.31922856     0.20600
C671        C  0.94113400  0.20722416  0.24743510     0.18800
C672        C  0.94003243  0.17718493  0.19273079    -0.17800
C673        C  0.95945392  0.18986106  0.15499776    -0.20000
C674        C  0.98057250  0.23251343  0.17145845     0.20300
C675        C  0.00110359  0.24445926  0.13409458    -0.33000
C676        C  0.52400234  0.28577192  0.15079387     0.01000
C677        C  0.52464379  0.31658806  0.20544843    -0.24300
C678        C  0.94201486  0.26942187  0.35649481    -0.28900
C679        C  0.92122525  0.22647899  0.33972627     0.06700
C680        C  0.92132519  0.19513930  0.28545075    -0.27600
H681        H  0.48569310  0.34738374  0.37770011     0.11400
H682        H  0.52161424  0.36799371  0.31186153     0.12500
H683        H  0.92407599  0.14393953  0.17910434     0.11600
H684        H  0.95828544  0.16600827  0.11297714     0.10800
H685        H  0.00048786  0.22015843  0.09219146     0.16200
H686        H  0.54234231  0.34828556  0.21882712     0.12100
H687        H  0.44184133  0.29346000  0.39851891     0.15000
H688        H  0.90485636  0.16229514  0.27263545     0.14800
C689        C  0.78733053  0.15876551  0.68549471    -0.18100
C690        C  0.76582874  0.15282441  0.72590077    -0.20300
C691        C  0.75605769  0.19308358  0.77195433     0.20400
C692        C  0.76865236  0.23971555  0.77780617    -0.03200
C693        C  0.78993006  0.24578896  0.73677339    -0.06300
C694        C  0.79917228  0.20512532  0.69024133     0.20600
C695        C  0.80140440  0.29265545  0.74195114     0.18800
C696        C  0.79247488  0.33281295  0.78858292    -0.17800
C697        C  0.77163522  0.32674523  0.82938583    -0.20000
C698        C  0.75929121  0.28046089  0.82407712     0.20300
C699        C  0.73688457  0.27445859  0.86356725    -0.33000
C700        C  0.72298987  0.22837450  0.85712041     0.01000
C701        C  0.73313139  0.18773381  0.81153328    -0.24300
C702        C  0.81964438  0.21166394  0.64904233    -0.28900
C703        C  0.83022370  0.25847436  0.65337545     0.06700
C704        C  0.82125127  0.29866868  0.70017458    -0.27600
H705        H  0.79425345  0.12715044  0.65014353     0.11400
H706        H  0.75651947  0.11676087  0.72086369     0.12500
H707        H  0.80129642  0.36899057  0.79326958     0.11600
H708        H  0.76476099  0.35833090  0.86479660     0.10800
H709        H  0.72891487  0.30617770  0.89823418     0.16200
H710        H  0.72254417  0.15215883  0.80629859     0.12100
H711        H  0.82672427  0.18052376  0.61322837     0.15000
H712        H  0.83001518  0.33475397  0.70431259     0.14800
C713        C  0.75987929  0.31283554  0.29830161    -0.18100
C714        C  0.73910665  0.32291090  0.26014385    -0.20300
C715        C  0.71655662  0.28705416  0.22416075     0.20400
C716        C  0.71529994  0.24027160  0.22597664    -0.03200
C717        C  0.73657821  0.22992783  0.26428099    -0.06300
C718        C  0.75855168  0.26667762  0.30085250     0.20600
C719        C  0.73579862  0.18307096  0.26617080     0.18800
C720        C  0.71352168  0.14708627  0.22955952    -0.17800
C721        C  0.69197112  0.15757352  0.19197587    -0.20000
C722        C  0.69256806  0.20411320  0.18997216     0.20300
C723        C  0.67061224  0.21542399  0.15314271    -0.33000
C724        C  0.67141716  0.26236550  0.15169758     0.01000
C725        C  0.69488816  0.29760480  0.18697858    -0.24300
C726        C  0.77891187  0.25680204  0.33948239    -0.28900
C727        C  0.77825672  0.21059944  0.34207105     0.06700
C728        C  0.75721580  0.17338038  0.30475691    -0.27600
H729        H  0.77683369  0.34126432  0.32607131     0.11400
H730        H  0.74039076  0.35894497  0.25914124     0.12500
H731        H  0.71252379  0.11094102  0.23027540     0.11600
H732        H  0.67475230  0.12929341  0.16454679     0.10800
H733        H  0.65270928  0.18785584  0.12602538     0.16200
H734        H  0.69579008  0.33382057  0.18639422     0.12100
H735        H  0.79621680  0.28495628  0.36698227     0.15000
H736        H  0.75713339  0.13751102  0.30632870     0.14800
C737        C  0.98675211  0.03289023  0.10185976    -0.18100
C738        C  0.00923816  0.06902996  0.09640362    -0.20300
C739        C  0.02283259  0.06448709  0.04573192     0.20400
C740        C  0.51360950  0.02317546  0.00010994    -0.03200
C741        C  0.99067859  0.98681068  0.00556125    -0.06300
C742        C  0.97724103  0.99166258  0.05670473     0.20600
C743        C  0.48107885  0.94578484  0.95982612     0.18800
C744        C  0.49419220  0.94167676  0.90907335    -0.17800
C745        C  0.51714193  0.97742681  0.90372701    -0.20000
C746        C  0.52708328  0.01829706  0.94896025     0.20300
C747        C  0.54985029  0.05459103  0.94379778    -0.33000
C748        C  0.55895851  0.09621270  0.98901311     0.01000
C749        C  0.54523461  0.10070867  0.03990129    -0.24300
C750        C  0.95447187  0.95533831  0.06178921    -0.28900
C751        C  0.94489271  0.91404184  0.01640434     0.06700
C752        C  0.95845570  0.90967570  0.96552933    -0.27600
H753        H  0.97666432  0.03730761  0.14142726     0.11400
H754        H  0.01597184  0.10060272  0.13187089     0.12500
H755        H  0.48665342  0.91078484  0.87339649     0.11600
H756        H  0.52697056  0.97320339  0.86409512     0.10800
H757        H  0.55987394  0.05082981  0.90438651     0.16200
H758        H  0.05185503  0.13256818  0.07513600     0.12100
H759        H  0.94448012  0.95907148  0.10120847     0.15000
H760        H  0.45135767  0.87815899  0.93018840     0.14800
C761        C  0.72582375  0.45610536  0.90970493    -0.18100
C762        C  0.74951004  0.49118906  0.90432886    -0.20300
C763        C  0.76372640  0.52839843  0.94997705     0.20400
C764        C  0.75313706  0.53092471  0.00158261    -0.03200
C765        C  0.72922492  0.49542529  0.00701755    -0.06300
C766        C  0.71589598  0.45752734  0.96083167     0.20600
C767        C  0.71918704  0.49742373  0.05862483     0.18800
C768        C  0.73264132  0.53536046  0.10427139    -0.17800
C769        C  0.75619929  0.57056664  0.09889257    -0.20000
C770        C  0.76684454  0.56847158  0.04776715     0.20300
C771        C  0.79130698  0.60288293  0.04208089    -0.33000
C772        C  0.80294362  0.59993172  0.99077451     0.01000
C773        C  0.78862950  0.56272933  0.94490809    -0.24300
C774        C  0.69338965  0.42129013  0.96651266    -0.28900
C775        C  0.68371780  0.42235675  0.01784051     0.06700
C776        C  0.69641582  0.46106699  0.06370398    -0.27600
H777        H  0.71561745  0.42746415  0.87378915     0.11400
H778        H  0.75706098  0.48886530  0.86439044     0.12500
H779        H  0.72518818  0.53759719  0.14421372     0.11600
H780        H  0.76638363  0.59922917  0.13480901     0.10800
H781        H  0.80170123  0.63163791  0.07779110     0.16200
H782        H  0.79671702  0.56060567  0.90521913     0.12100
H783        H  0.68375986  0.39186619  0.93079955     0.15000
H784        H  0.68937023  0.46228876  0.10342061     0.14800
loop_ 
_geom_bond_atom_site_label_1 
_geom_bond_atom_site_label_2 
_geom_bond_distance 
_geom_bond_site_symmetry_2 
_ccdc_geom_bond_type 
O1           Ni7   1.948       .  S
O1           C22   1.276       .  A
O2          Ni25   1.899       .  S
O2           C11   1.266   1_556  A
O3           Ni7   1.928       .  S
O3          Ni25   1.912       .  S
O3          Ni19   1.910   1_556  S
O3           H26   0.965   1_556  S
C4           O21   1.264       .  A
C4           O13   1.277       .  A
C4          C284   1.481       .  S
O5          Ni24   1.950       .  S
O5           C11   1.277       .  A
O6          Ni24   1.906       .  S
O6            C8   1.272       .  A
Ni7          O10   1.943       .  S
Ni7          O12   1.900       .  S
C8           O18   1.274       .  A
C8          C332   1.484       .  S
O9          Ni25   1.888       .  S
O9           C15   1.264       .  A
O10          C15   1.275       .  A
C11         C383   1.492       .  S
O12          C14   1.271       .  A
O13         Ni24   1.950       .  S
C14          O20   1.277       .  A
C14         C260   1.471       .  S
C15         C308   1.479       .  S
H16          O17   0.966       .  S
O17         Ni25   1.901   1_554  S
O17         Ni19   1.902       .  S
O17         Ni24   1.925       .  S
O18         Ni19   1.942       .  S
Ni19         O23   1.893       .  S
Ni19         O21   1.886       .  S
O20         Ni25   1.943       .  S
C22          O23   1.263   1_556  A
C22         C356   1.491       .  S
O27         Ni33   1.953       .  S
O27          C48   1.277       .  A
O28         Ni51   1.900       .  S
O28          C37   1.267   1_556  A
O29         Ni33   1.924       .  S
O29         Ni51   1.907       .  S
O29         Ni45   1.906   1_556  S
O29          H52   0.966   1_556  S
C30          O47   1.263       .  A
C30          O39   1.276       .  A
C30         C239   1.484       .  S
O31         Ni50   1.946       .  S
O31          C37   1.277       .  A
O32         Ni50   1.905       .  S
O32          C34   1.271       .  A
Ni33         O36   1.955       .  S
Ni33         O38   1.894       .  S
C34          O44   1.277       .  A
C34         C188   1.471       .  S
O35         Ni51   1.888       .  S
O35          C41   1.265       .  A
O36          C41   1.278       .  A
C37         C359   1.491       .  S
O38          C40   1.270       .  A
O39         Ni50   1.951       .  S
C40          O46   1.278       .  A
C40         C215   1.484       .  S
C41         C164   1.485       .  S
H42          O43   0.966       .  S
O43         Ni51   1.910   1_554  S
O43         Ni45   1.903       .  S
O43         Ni50   1.930       .  S
O44         Ni45   1.945       .  S
Ni45         O49   1.895       .  S
Ni45         O47   1.888       .  S
O46         Ni51   1.952       .  S
C48          O49   1.264   1_556  A
C48         C380   1.491       .  S
O53         Ni59   1.941       .  S
O53          C74   1.274       .  A
O54         Ni77   1.896       .  S
O54          C63   1.267       .  A
O55         Ni59   1.924       .  S
O55         Ni77   1.910       .  S
O55         Ni71   1.912       .  S
O55          H78   0.967       .  S
C56          O73   1.265       .  A
C56          O65   1.273       .  A
C56         C335   1.472       .  S
O57         Ni76   1.947       .  S
O57          C63   1.277       .  A
O58         Ni76   1.905       .  S
O58          C60   1.273       .  A
Ni59         O62   1.934       .  S
Ni59         O64   1.899       .  S
C60          O70   1.277       .  A
C60         C287   1.467       .  S
O61         Ni77   1.902       .  S
O61          C67   1.267       .  A
O62          C67   1.273       .  A
C63         C116   1.491       .  S
O64          C66   1.272       .  A
O65         Ni76   1.947       .  S
C66          O72   1.278       .  A
C66         C311   1.478       .  S
C67         C263   1.484       .  S
H68          O69   0.966       .  S
O69         Ni77   1.913       .  S
O69         Ni71   1.905       .  S
O69         Ni76   1.934       .  S
O70         Ni71   1.940       .  S
Ni71         O75   1.906       .  S
Ni71         O73   1.891       .  S
O72         Ni77   1.943       .  S
C74          O75   1.267       .  A
C74         C140   1.491       .  S
O79         Ni85   1.951       .  S
O79         C100   1.277       .  A
O80        Ni103   1.901       .  S
O80          C89   1.267       .  A
O81         Ni85   1.929       .  S
O81        Ni103   1.903       .  S
O81         Ni97   1.909       .  S
O81         H104   0.966       .  S
C82          O99   1.267       .  A
C82          O91   1.275       .  A
C82         C191   1.489       .  S
O83        Ni102   1.947       .  S
O83          C89   1.276       .  A
O84        Ni102   1.908       .  S
O84          C86   1.273       .  A
Ni85         O88   1.946       .  S
Ni85         O90   1.906       .  S
C86          O96   1.277       .  A
C86         C236   1.475       .  S
O87        Ni103   1.894       .  S
O87          C93   1.268       .  A
O88          C93   1.275       .  A
C89         C143   1.490       .  S
O90          C92   1.273       .  A
O91        Ni102   1.948       .  S
C92          O98   1.278       .  A
C92         C167   1.484       .  S
C93         C212   1.478       .  S
H94          O95   0.966       .  S
O95        Ni103   1.918       .  S
O95         Ni97   1.907       .  S
O95        Ni102   1.932       .  S
O96         Ni97   1.942       .  S
Ni97        O101   1.891       .  S
Ni97         O99   1.902       .  S
O98        Ni103   1.947       .  S
C100        O101   1.264       .  A
C100        C119   1.489       .  S
C105        C106   1.399       .  A
C105        C110   1.403   1_545  A
C105        H121   1.084       .  S
C106        C107   1.404   1_455  A
C106        H122   1.083       .  S
C107        C509   1.402       .  A
C107        C500   1.409       .  A
C108        C114   1.413   1_545  A
C108        C499   1.409       .  A
C108        C501   1.415   1_545  A
C109        C110   1.413       .  A
C109        C500   1.415   1_465  A
C109        C503   1.409       .  A
C110        C118   1.407       .  A
C111        C112   1.404       .  A
C111        C501   1.409       .  A
C111        C512   1.403       .  A
C112        C113   1.400       .  A
C112        H123   1.083       .  S
C113        C114   1.404       .  A
C113        H124   1.084       .  S
C114        C115   1.409   1_565  A
C115        C116   1.410       .  A
C115        H125   1.084       .  S
C116        C117   1.411       .  A
C117        C499   1.402       .  A
C117        H518   1.084       .  S
C118        C119   1.408       .  A
C118        H127   1.084       .  S
C119        C120   1.412       .  A
C120        C503   1.403       .  A
C120        H520   1.084       .  S
H126        C509   1.084       .  S
H128        C512   1.084       .  S
C129        C130   1.402       .  A
C129        C134   1.405       .  A
C129        H145   1.083       .  S
C130        C131   1.405       .  A
C130        H146   1.084       .  S
C131        C141   1.407       .  A
C131        C132   1.411       .  A
C132        C138   1.413       .  A
C132        C133   1.416       .  A
C133        C135   1.410       .  A
C133        C134   1.413       .  A
C134        C142   1.410       .  A
C135        C144   1.405       .  A
C135        C136   1.404       .  A
C136        C137   1.400       .  A
C136        H147   1.083       .  S
C137        C138   1.404       .  A
C137        H148   1.084       .  S
C138        C139   1.408       .  A
C139        C140   1.409       .  A
C139        H149   1.084       .  S
C140        C141   1.410       .  A
C141        H150   1.083       .  S
C142        C143   1.409       .  A
C142        H151   1.084       .  S
C143        C144   1.409       .  A
C144        H152   1.082       .  S
C153        C154   1.403       .  A
C153        C158   1.405       .  A
C153        H169   1.083       .  S
C154        C155   1.405       .  A
C154        H170   1.083       .  S
C155        C165   1.410       .  A
C155        C156   1.413       .  A
C156        C554   1.409       .  A
C156        C549   1.413       .  A
C157        C159   1.411       .  A
C157        C548   1.413       .  A
C157        C550   1.412       .  A
C158        C549   1.412       .  A
C158        C558   1.409       .  A
C159        C168   1.401       .  A
C159        C160   1.403       .  A
C160        C161   1.396       .  A
C160        H171   1.084       .  S
C161        C162   1.402       .  A
C161        H172   1.083       .  S
C162        C163   1.397   1_455  A
C162        C548   1.409       .  A
C163        C556   1.409       .  A
C163        H173   1.084       .  S
C164        C165   1.409       .  A
C164        C555   1.409       .  A
C165        H174   1.084       .  S
C166        C167   1.409       .  A
C166        C550   1.409       .  A
C166        H567   1.084       .  S
C167        C168   1.407       .  A
C168        H176   1.084       .  S
H175        C558   1.084       .  S
C177        C178   1.402       .  A
C177        C182   1.405       .  A
C177        H193   1.083       .  S
C178        C179   1.404       .  A
C178        H194   1.084       .  S
C179        C189   1.407       .  A
C179        C180   1.413       .  A
C180        C578   1.412       .  A
C180        C573   1.414       .  A
C181        C183   1.411       .  A
C181        C572   1.414       .  A
C181        C574   1.411   1_655  A
C182        C190   1.408       .  A
C182        C573   1.411       .  A
C183        C192   1.403       .  A
C183        C184   1.403       .  A
C184        C185   1.398       .  A
C184        H195   1.084       .  S
C185        C186   1.403       .  A
C185        H196   1.084       .  S
C186        C572   1.412       .  A
C186        C579   1.402       .  A
C187        C188   1.403       .  A
C187        C578   1.402       .  A
C187        H589   1.085       .  S
C188        C189   1.405       .  A
C189        H198   1.084       .  S
C190        C583   1.411       .  A
C190        H199   1.084       .  S
C191        C192   1.409   1_455  A
C191        C582   1.411       .  A
C192        H200   1.084       .  S
H197        C579   1.085       .  S
C201        C202   1.405       .  A
C201        C206   1.406       .  A
C201        H217   1.083       .  S
C202        C203   1.406       .  A
C202        H218   1.083       .  S
C203        C213   1.412       .  A
C203        C204   1.413       .  A
C204        C210   1.409       .  A
C204        C205   1.412       .  A
C205        C207   1.410       .  A
C205        C206   1.412       .  A
C206        C214   1.411       .  A
C207        C216   1.395       .  A
C207        C208   1.402       .  A
C208        C209   1.393       .  A
C208        H219   1.084       .  S
C209        C210   1.401       .  A
C209        H220   1.083       .  S
C210        C211   1.393       .  A
C211        C212   1.403       .  A
C211        H221   1.083       .  S
C212        C213   1.409       .  A
C213        H222   1.084       .  S
C214        C215   1.411       .  A
C214        H223   1.084       .  S
C215        C216   1.406       .  A
C216        H224   1.084       .  S
C225        C226   1.397       .  A
C225        C230   1.403       .  A
C225        H241   1.084       .  S
C226        C227   1.403       .  A
C226        H242   1.084       .  S
C227        C237   1.401       .  A
C227        C228   1.412       .  A
C228        C234   1.412       .  A
C228        C229   1.412       .  A
C229        C231   1.412       .  A
C229        C230   1.410       .  A
C230        C238   1.399       .  A
C231        C240   1.407       .  A
C231        C232   1.404       .  A
C232        C233   1.401       .  A
C232        H243   1.083       .  S
C233        C234   1.404       .  A
C233        H244   1.083       .  S
C234        C235   1.406       .  A
C235        C236   1.406       .  A
C235        H245   1.084       .  S
C236        C237   1.405       .  A
C237        H246   1.085       .  S
C238        C239   1.410       .  A
C238        H247   1.084       .  S
C239        C240   1.408       .  A
C240        H248   1.084       .  S
C249        C250   1.399       .  A
C249        C254   1.404       .  A
C249        H265   1.084       .  S
C250        C251   1.403       .  A
C250        H266   1.083       .  S
C251        C653   1.405       .  A
C251        C644   1.414       .  A
C252        C258   1.411       .  A
C252        C643   1.414       .  A
C252        C645   1.412       .  A
C253        C254   1.410       .  A
C253        C644   1.412       .  A
C253        C647   1.412       .  A
C254        C262   1.402       .  A
C255        C256   1.403       .  A
C255        C645   1.412       .  A
C255        C656   1.403   1_455  A
C256        C257   1.398       .  A
C256        H267   1.084       .  S
C257        C258   1.403       .  A
C257        H268   1.084       .  S
C258        C259   1.400       .  A
C259        C260   1.405       .  A
C259        H269   1.085       .  S
C260        C261   1.404       .  A
C261        C643   1.405       .  A
C261        H270   1.084       .  S
C262        C263   1.409       .  A
C262        H271   1.084       .  S
C263        C264   1.408       .  A
C264        C647   1.403       .  A
C264        H664   1.084       .  S
H272        C656   1.084   1_455  S
C273        C274   1.399   1_655  A
C273        C278   1.403       .  A
C273        H289   1.084       .  S
C274        C275   1.404       .  A
C274        H290   1.084       .  S
C275        C285   1.404       .  A
C275        C276   1.412   1_455  A
C276        C674   1.410       .  A
C276        C669   1.410       .  A
C277        C279   1.413       .  A
C277        C668   1.410       .  A
C277        C670   1.412       .  A
C278        C669   1.412       .  A
C278        C678   1.403       .  A
C279        C288   1.401       .  A
C279        C280   1.403       .  A
C280        C281   1.397       .  A
C280        H291   1.084       .  S
C281        C282   1.403       .  A
C281        H292   1.084       .  S
C282        C283   1.398       .  A
C282        C668   1.410       .  A
C283        C676   1.409       .  A
C283        H293   1.084       .  S
C284        C285   1.407       .  A
C284        C675   1.409       .  A
C285        H294   1.084       .  S
C286        C287   1.403       .  A
C286        C670   1.403       .  A
C286        H687   1.084       .  S
C287        C288   1.403       .  A
C288        H296   1.085       .  S
H295        C678   1.084       .  S
C297        C298   1.400       .  A
C297        C302   1.404       .  A
C297        H313   1.083       .  S
C298        C299   1.403       .  A
C298        H314   1.083       .  S
C299        C309   1.404       .  A
C299        C300   1.412       .  A
C300        C306   1.411       .  A
C300        C301   1.411       .  A
C301        C303   1.411       .  A
C301        C302   1.412       .  A
C302        C310   1.405       .  A
C303        C312   1.399       .  A
C303        C304   1.403       .  A
C304        C305   1.397       .  A
C304        H315   1.084       .  S
C305        C306   1.403       .  A
C305        H316   1.083       .  S
C306        C307   1.399       .  A
C307        C308   1.409       .  A
C307        H317   1.085       .  S
C308        C309   1.406       .  A
C309        H318   1.084       .  S
C310        C311   1.406       .  A
C310        H319   1.084       .  S
C311        C312   1.407       .  A
C312        H320   1.084       .  S
C321        C322   1.394       .  A
C321        C326   1.402       .  A
C321        H337   1.084       .  S
C322        C323   1.402       .  A
C322        H338   1.084       .  S
C323        C333   1.398       .  A
C323        C324   1.412       .  A
C324        C330   1.410       .  A
C324        C325   1.411       .  A
C325        C327   1.414       .  A
C325        C326   1.410       .  A
C326        C334   1.394       .  A
C327        C336   1.411       .  A
C327        C328   1.405       .  A
C328        C329   1.403       .  A
C328        H339   1.083       .  S
C329        C330   1.406       .  A
C329        H340   1.084       .  S
C330        C331   1.408       .  A
C331        C332   1.412       .  A
C331        H341   1.084       .  S
C332        C333   1.405       .  A
C333        H342   1.084       .  S
C334        C335   1.403       .  A
C334        H343   1.084       .  S
C335        C336   1.406       .  A
C336        H344   1.084       .  S
C345        C346   1.400       .  A
C345        C350   1.404   1_545  A
C345        H361   1.084       .  S
C346        C347   1.405       .  A
C346        H362   1.084       .  S
C347        C749   1.405       .  A
C347        C740   1.410       .  A
C348        C354   1.412   1_554  A
C348        C739   1.410       .  A
C348        C741   1.415   1_445  A
C349        C350   1.412       .  A
C349        C740   1.415   1_565  A
C349        C743   1.411   1_554  A
C350        C358   1.407       .  A
C351        C352   1.404       .  A
C351        C741   1.411   1_556  A
C351        C752   1.405       .  A
C352        C353   1.400   1_655  A
C352        H363   1.083       .  S
C353        C354   1.404   1_565  A
C353        H364   1.084       .  S
C354        C355   1.407       .  A
C355        C356   1.408       .  A
C355        H365   1.084       .  S
C356        C357   1.412   1_556  A
C357        C739   1.405       .  A
C357        H758   1.084       .  S
C358        C359   1.409       .  A
C358        H367   1.084       .  S
C359        C360   1.411   1_554  A
C360        C743   1.405       .  A
C360        H760   1.084       .  S
H366        C749   1.084       .  S
H368        C752   1.084       .  S
C369        C370   1.400       .  A
C369        C374   1.404       .  A
C369        H385   1.084       .  S
C370        C371   1.404       .  A
C370        H386   1.083       .  S
C371        C381   1.408       .  A
C371        C372   1.412   1_556  A
C372        C378   1.410       .  A
C372        C373   1.416       .  A
C373        C375   1.412       .  A
C373        C374   1.411   1_554  A
C374        C382   1.405       .  A
C375        C384   1.408       .  A
C375        C376   1.404       .  A
C376        C377   1.401       .  A
C376        H387   1.084       .  S
C377        C378   1.405       .  A
C377        H388   1.084       .  S
C378        C379   1.406       .  A
C379        C380   1.411   1_554  A
C379        H389   1.084       .  S
C380        C381   1.409       .  A
C381        H390   1.084       .  S
C382        C383   1.411   1_556  A
C382        H391   1.084       .  S
C383        C384   1.409       .  A
C384        H392   1.084       .  S
O393       Ni399   1.949       .  S
O393        C414   1.276       .  A
O394       Ni417   1.899       .  S
O394        C403   1.266   1_556  A
O395       Ni399   1.928       .  S
O395       Ni417   1.912       .  S
O395       Ni411   1.910   1_556  S
O395        H418   0.965   1_556  S
C396        O413   1.264       .  A
C396        O405   1.277       .  A
C396        C676   1.481       .  S
O397       Ni416   1.950       .  S
O397        C403   1.277       .  A
O398       Ni416   1.906       .  S
O398        C400   1.272       .  A
Ni399       O402   1.943       .  S
Ni399       O404   1.900       .  S
C400        O410   1.274       .  A
C400        C724   1.484       .  S
O401       Ni417   1.888       .  S
O401        C407   1.264       .  A
O402        C407   1.275       .  A
C403        C775   1.492       .  S
O404        C406   1.271       .  A
O405       Ni416   1.950       .  S
C406        O412   1.277       .  A
C406        C652   1.471       .  S
C407        C700   1.479       .  S
H408        O409   0.966       .  S
O409       Ni417   1.901   1_554  S
O409       Ni411   1.902       .  S
O409       Ni416   1.925       .  S
O410       Ni411   1.942       .  S
Ni411       O415   1.893       .  S
Ni411       O413   1.886       .  S
O412       Ni417   1.943       .  S
C414        O415   1.263   1_556  A
C414        C748   1.491       .  S
O419       Ni425   1.953       .  S
O419        C440   1.277       .  A
O420       Ni443   1.900       .  S
O420        C429   1.267   1_556  A
O421       Ni425   1.924       .  S
O421       Ni443   1.907       .  S
O421       Ni437   1.906   1_556  S
O421        H444   0.966   1_556  S
C422        O439   1.263       .  A
C422        O431   1.276       .  A
C422        C631   1.484       .  S
O423       Ni442   1.946       .  S
O423        C429   1.277       .  A
O424       Ni442   1.905       .  S
O424        C426   1.271       .  A
Ni425       O428   1.955       .  S
Ni425       O430   1.894       .  S
C426        O436   1.277       .  A
C426        C580   1.471       .  S
O427       Ni443   1.888       .  S
O427        C433   1.265       .  A
O428        C433   1.278       .  A
C429        C751   1.491       .  S
O430        C432   1.270       .  A
O431       Ni442   1.951       .  S
C432        O438   1.278       .  A
C432        C607   1.484       .  S
C433        C556   1.485       .  S
H434        O435   0.966       .  S
O435       Ni443   1.910   1_554  S
O435       Ni437   1.903       .  S
O435       Ni442   1.930       .  S
O436       Ni437   1.945       .  S
Ni437       O441   1.895       .  S
Ni437       O439   1.888       .  S
O438       Ni443   1.952       .  S
C440        O441   1.264   1_556  A
C440        C772   1.491       .  S
O445       Ni451   1.941       .  S
O445        C466   1.274       .  A
O446       Ni469   1.896       .  S
O446        C455   1.267       .  A
O447       Ni451   1.924       .  S
O447       Ni469   1.910       .  S
O447       Ni463   1.912       .  S
O447        H470   0.967       .  S
C448        O465   1.265       .  A
C448        O457   1.273       .  A
C448        C727   1.472       .  S
O449       Ni468   1.947       .  S
O449        C455   1.277       .  A
O450       Ni468   1.905       .  S
O450        C452   1.273       .  A
Ni451       O454   1.934       .  S
Ni451       O456   1.899       .  S
C452        O462   1.277       .  A
C452        C679   1.467       .  S
O453       Ni469   1.902       .  S
O453        C459   1.267       .  A
O454        C459   1.273       .  A
C455        C508   1.491       .  S
O456        C458   1.272       .  A
O457       Ni468   1.947       .  S
C458        O464   1.278       .  A
C458        C703   1.478       .  S
C459        C655   1.484       .  S
H460        O461   0.966       .  S
O461       Ni469   1.913       .  S
O461       Ni463   1.905       .  S
O461       Ni468   1.934       .  S
O462       Ni463   1.940       .  S
Ni463       O467   1.906       .  S
Ni463       O465   1.891       .  S
O464       Ni469   1.943       .  S
C466        O467   1.267       .  A
C466        C532   1.491       .  S
O471       Ni477   1.951       .  S
O471        C492   1.277       .  A
O472       Ni495   1.901       .  S
O472        C481   1.267       .  A
O473       Ni477   1.929       .  S
O473       Ni495   1.903       .  S
O473       Ni489   1.909       .  S
O473        H496   0.966       .  S
C474        O491   1.267       .  A
C474        O483   1.275       .  A
C474        C583   1.489       .  S
O475       Ni494   1.947       .  S
O475        C481   1.276       .  A
O476       Ni494   1.908       .  S
O476        C478   1.273       .  A
Ni477       O480   1.946       .  S
Ni477       O482   1.906       .  S
C478        O488   1.277       .  A
C478        C628   1.475       .  S
O479       Ni495   1.894       .  S
O479        C485   1.268       .  A
O480        C485   1.275       .  A
C481        C535   1.490       .  S
O482        C484   1.273       .  A
O483       Ni494   1.948       .  S
C484        O490   1.278       .  A
C484        C559   1.484       .  S
C485        C604   1.478       .  S
H486        O487   0.966       .  S
O487       Ni495   1.918       .  S
O487       Ni489   1.907       .  S
O487       Ni494   1.932       .  S
O488       Ni489   1.942       .  S
Ni489       O493   1.891       .  S
Ni489       O491   1.902       .  S
O490       Ni495   1.946       .  S
C492        O493   1.264       .  A
C492        C511   1.489       .  S
C497        C498   1.399       .  A
C497        C502   1.403   1_545  A
C497        H513   1.084       .  S
C498        C499   1.404       .  A
C498        H514   1.083       .  S
C500        C506   1.413   1_545  A
C501        C502   1.413       .  A
C502        C510   1.407       .  A
C503        C504   1.404   1_455  A
C504        C505   1.400       .  A
C504        H515   1.083       .  S
C505        C506   1.404       .  A
C505        H516   1.084       .  S
C506        C507   1.409   1_565  A
C507        C508   1.410       .  A
C507        H517   1.084       .  S
C508        C509   1.411       .  A
C510        C511   1.408       .  A
C510        H519   1.084       .  S
C511        C512   1.412       .  A
C521        C522   1.402       .  A
C521        C526   1.405       .  A
C521        H537   1.083       .  S
C522        C523   1.405       .  A
C522        H538   1.084       .  S
C523        C533   1.407       .  A
C523        C524   1.411       .  A
C524        C530   1.413       .  A
C524        C525   1.416       .  A
C525        C527   1.410       .  A
C525        C526   1.413       .  A
C526        C534   1.410       .  A
C527        C536   1.405       .  A
C527        C528   1.404       .  A
C528        C529   1.400       .  A
C528        H539   1.083       .  S
C529        C530   1.404       .  A
C529        H540   1.084       .  S
C530        C531   1.408       .  A
C531        C532   1.409       .  A
C531        H541   1.084       .  S
C532        C533   1.410       .  A
C533        H542   1.083       .  S
C534        C535   1.409       .  A
C534        H543   1.084       .  S
C535        C536   1.409       .  A
C536        H544   1.082       .  S
C545        C546   1.403       .  A
C545        C550   1.405       .  A
C545        H561   1.083       .  S
C546        C547   1.405       .  A
C546        H562   1.083       .  S
C547        C557   1.410   1_455  A
C547        C548   1.413       .  A
C549        C551   1.411       .  A
C551        C560   1.401       .  A
C551        C552   1.403       .  A
C552        C553   1.396       .  A
C552        H563   1.084       .  S
C553        C554   1.402       .  A
C553        H564   1.083       .  S
C554        C555   1.397       .  A
C555        H565   1.084       .  S
C556        C557   1.409       .  A
C557        H566   1.084       .  S
C558        C559   1.409       .  A
C559        C560   1.407       .  A
C560        H568   1.084       .  S
C569        C570   1.402   1_455  A
C569        C574   1.405       .  A
C569        H585   1.083       .  S
C570        C571   1.404       .  A
C570        H586   1.084       .  S
C571        C581   1.407       .  A
C571        C572   1.413       .  A
C573        C575   1.411       .  A
C574        C582   1.408       .  A
C575        C584   1.403       .  A
C575        C576   1.403       .  A
C576        C577   1.398       .  A
C576        H587   1.084       .  S
C577        C578   1.403       .  A
C577        H588   1.084       .  S
C579        C580   1.403       .  A
C580        C581   1.405       .  A
C581        H590   1.084       .  S
C582        H591   1.084       .  S
C583        C584   1.409       .  A
C584        H592   1.084       .  S
C593        C594   1.405       .  A
C593        C598   1.406       .  A
C593        H609   1.083       .  S
C594        C595   1.406       .  A
C594        H610   1.083       .  S
C595        C605   1.412       .  A
C595        C596   1.413       .  A
C596        C602   1.409       .  A
C596        C597   1.412       .  A
C597        C599   1.410       .  A
C597        C598   1.412       .  A
C598        C606   1.411       .  A
C599        C608   1.395       .  A
C599        C600   1.402       .  A
C600        C601   1.393       .  A
C600        H611   1.084       .  S
C601        C602   1.401       .  A
C601        H612   1.083       .  S
C602        C603   1.393       .  A
C603        C604   1.403       .  A
C603        H613   1.083       .  S
C604        C605   1.409       .  A
C605        H614   1.084       .  S
C606        C607   1.411       .  A
C606        H615   1.084       .  S
C607        C608   1.406       .  A
C608        H616   1.084       .  S
C617        C618   1.397       .  A
C617        C622   1.403       .  A
C617        H633   1.084       .  S
C618        C619   1.403       .  A
C618        H634   1.084       .  S
C619        C629   1.401       .  A
C619        C620   1.412       .  A
C620        C626   1.412       .  A
C620        C621   1.412       .  A
C621        C623   1.412       .  A
C621        C622   1.410       .  A
C622        C630   1.399       .  A
C623        C632   1.407       .  A
C623        C624   1.404       .  A
C624        C625   1.401       .  A
C624        H635   1.083       .  S
C625        C626   1.404       .  A
C625        H636   1.083       .  S
C626        C627   1.406       .  A
C627        C628   1.406       .  A
C627        H637   1.084       .  S
C628        C629   1.405       .  A
C629        H638   1.085       .  S
C630        C631   1.410       .  A
C630        H639   1.084       .  S
C631        C632   1.408       .  A
C632        H640   1.084       .  S
C641        C642   1.399   1_655  A
C641        C646   1.404       .  A
C641        H657   1.084       .  S
C642        C643   1.403       .  A
C642        H658   1.083       .  S
C644        C650   1.411       .  A
C645        C646   1.410   1_455  A
C646        C654   1.402       .  A
C647        C648   1.403       .  A
C648        C649   1.398       .  A
C648        H659   1.084       .  S
C649        C650   1.403       .  A
C649        H660   1.084       .  S
C650        C651   1.400       .  A
C651        C652   1.405       .  A
C651        H661   1.085       .  S
C652        C653   1.404       .  A
C653        H662   1.084       .  S
C654        C655   1.409       .  A
C654        H663   1.084       .  S
C655        C656   1.408       .  A
C665        C666   1.399       .  A
C665        C670   1.403       .  A
C665        H681   1.084       .  S
C666        C667   1.404       .  A
C666        H682   1.084       .  S
C667        C677   1.404       .  A
C667        C668   1.412       .  A
C669        C671   1.413       .  A
C671        C680   1.401       .  A
C671        C672   1.403       .  A
C672        C673   1.397       .  A
C672        H683   1.084       .  S
C673        C674   1.403       .  A
C673        H684   1.084       .  S
C674        C675   1.398   1_655  A
C675        H685   1.084       .  S
C676        C677   1.407       .  A
C677        H686   1.084       .  S
C678        C679   1.403       .  A
C679        C680   1.403       .  A
C680        H688   1.085       .  S
C689        C690   1.400       .  A
C689        C694   1.404       .  A
C689        H705   1.083       .  S
C690        C691   1.403       .  A
C690        H706   1.083       .  S
C691        C701   1.404       .  A
C691        C692   1.412       .  A
C692        C698   1.411       .  A
C692        C693   1.411       .  A
C693        C695   1.411       .  A
C693        C694   1.412       .  A
C694        C702   1.405       .  A
C695        C704   1.399       .  A
C695        C696   1.403       .  A
C696        C697   1.397       .  A
C696        H707   1.084       .  S
C697        C698   1.403       .  A
C697        H708   1.083       .  S
C698        C699   1.399       .  A
C699        C700   1.409       .  A
C699        H709   1.085       .  S
C700        C701   1.406       .  A
C701        H710   1.084       .  S
C702        C703   1.406       .  A
C702        H711   1.084       .  S
C703        C704   1.407       .  A
C704        H712   1.084       .  S
C713        C714   1.394       .  A
C713        C718   1.402       .  A
C713        H729   1.084       .  S
C714        C715   1.402       .  A
C714        H730   1.084       .  S
C715        C725   1.398       .  A
C715        C716   1.412       .  A
C716        C722   1.410       .  A
C716        C717   1.411       .  A
C717        C719   1.414       .  A
C717        C718   1.410       .  A
C718        C726   1.394       .  A
C719        C728   1.411       .  A
C719        C720   1.405       .  A
C720        C721   1.403       .  A
C720        H731   1.083       .  S
C721        C722   1.406       .  A
C721        H732   1.084       .  S
C722        C723   1.408       .  A
C723        C724   1.412       .  A
C723        H733   1.084       .  S
C724        C725   1.405       .  A
C725        H734   1.084       .  S
C726        C727   1.403       .  A
C726        H735   1.084       .  S
C727        C728   1.406       .  A
C728        H736   1.084       .  S
C737        C738   1.400   1_655  A
C737        C742   1.404   1_545  A
C737        H753   1.084       .  S
C738        C739   1.405       .  A
C738        H754   1.084       .  S
C740        C746   1.412   1_554  A
C741        C742   1.412       .  A
C742        C750   1.407       .  A
C743        C744   1.404       .  A
C744        C745   1.400       .  A
C744        H755   1.083       .  S
C745        C746   1.404   1_565  A
C745        H756   1.084       .  S
C746        C747   1.407       .  A
C747        C748   1.408       .  A
C747        H757   1.084       .  S
C748        C749   1.412   1_556  A
C750        C751   1.409       .  A
C750        H759   1.084       .  S
C751        C752   1.411   1_554  A
C761        C762   1.401       .  A
C761        C766   1.404       .  A
C761        H777   1.084       .  S
C762        C763   1.404       .  A
C762        H778   1.083       .  S
C763        C773   1.408       .  A
C763        C764   1.412   1_556  A
C764        C770   1.410       .  A
C764        C765   1.416       .  A
C765        C767   1.412       .  A
C765        C766   1.411   1_554  A
C766        C774   1.405       .  A
C767        C776   1.408       .  A
C767        C768   1.404       .  A
C768        C769   1.401       .  A
C768        H779   1.084       .  S
C769        C770   1.405       .  A
C769        H780   1.084       .  S
C770        C771   1.406       .  A
C771        C772   1.411   1_554  A
C771        H781   1.084       .  S
C772        C773   1.409       .  A
C773        H782   1.084       .  S
C774        C775   1.411   1_556  A
C774        H783   1.084       .  S
C775        C776   1.409       .  A
C776        H784   1.084       .  S
