geometry optimzed in LAMMPS
_audit_creation_date              2020-11-30 
_audit_creation_method            'lammps2cif' 
_symmetry_space_group_name_H-M    'P1' 
_symmetry_Int_Tables_number       1 
_symmetry_cell_setting            triclinic 
loop_ 
_symmetry_equiv_pos_as_xyz 
  x,y,z 
_cell_length_a                    28.96585524 
_cell_length_b                    36.509670116695396 
_cell_length_c                    25.026733010342813 
_cell_angle_alpha                 90.33779398482498 
_cell_angle_beta                  92.4871548793774 
_cell_angle_gamma                 89.93114086657926 
loop_ 
_atom_site_label 
_atom_site_type_symbol 
_atom_site_fract_x 
_atom_site_fract_y 
_atom_site_fract_z 
_atom_site_charge 
C1          C  0.76799409  0.23608921  0.97839028     0.03700
C2          C  0.78162649  0.21687270  0.93296988    -0.12400
C3          C  0.81089677  0.18631217  0.93839727     0.01200
C4          C  0.82651291  0.17509182  0.98957905    -0.11000
C5          C  0.81236490  0.19364539  0.03543616     0.03700
C6          C  0.78314570  0.22420801  0.02946137    -0.10400
H7          H  0.76972827  0.22580621  0.89350717     0.09300
H8          H  0.84926291  0.15159142  0.99372232     0.06800
H9          H  0.77172090  0.23853711  0.06457607     0.06700
C10         C  0.17949838  0.82841602  0.03447197     0.03700
C11         C  0.16401389  0.84221671  0.98464568    -0.12400
C12         C  0.13250088  0.87134264  0.98169550     0.01200
C13         C  0.11725337  0.88724063  0.02895360    -0.11000
C14         C  0.13276007  0.87375164  0.07889547     0.03700
C15         C  0.16353926  0.84415646  0.08153492    -0.10400
H16         H  0.17611916  0.83006158  0.94818649     0.09300
H17         H  0.09321555  0.91001978  0.02686704     0.06800
H18         H  0.17526088  0.83353891  0.12014556     0.06700
O19         O  0.39666765  0.59999712  0.98125933    -0.80300
O20         O  0.53666213  0.47274622  0.97939633    -0.65000
O21         O  0.42934956  0.52957883  0.00547782    -1.11600
C22         C  0.51719396  0.57619758  0.15379726     1.06600
O23         O  0.54677346  0.45913460  0.06502552    -0.78200
O24         O  0.48388168  0.48424015  0.13219752    -0.65800
Ni25       Ni  0.39370129  0.55198453  0.94907831     1.34900
C26         C  0.44479993  0.49926856  0.13757529     0.85300
O27         O  0.45213195  0.47416730  0.93206934    -0.78700
O28         O  0.38722332  0.50601760  0.91181627    -0.89000
C29         C  0.55457158  0.45282884  0.01630164     0.84900
O30         O  0.44298792  0.56529884  0.90515210    -0.67200
O31         O  0.53664828  0.54495416  0.15227393    -0.86500
C32         C  0.48577181  0.55777358  0.90512180     0.85700
C33         C  0.41422689  0.47892772  0.90491356     1.07300
H34         H  0.53456491  0.54528982  0.03294532     0.39100
O35         O  0.51110050  0.52970720  0.04698289    -1.09200
O36         O  0.43265882  0.52866233  0.11387984    -0.65800
Ni37       Ni  0.45850294  0.55944262  0.06046659     1.26300
O38         O  0.50566302  0.53579977  0.93826656    -0.66000
O39         O  0.48931524  0.58774082  0.11668908    -0.78300
C40         C  0.38984100  0.60888601  0.02947096     0.85100
O41         O  0.40551228  0.58965472  0.06813254    -0.65500
Ni42       Ni  0.53939250  0.50346684  0.10526421     1.27400
Ni43       Ni  0.48250575  0.50156761  0.98961470     1.26100
H44         H  0.40837755  0.51297089  0.02200075     0.39700
C45         C  0.26014589  0.32974250  0.49305567     0.03700
C46         C  0.27374568  0.34853875  0.44754051    -0.12400
C47         C  0.30380042  0.37863326  0.45245800     0.01200
C48         C  0.31965652  0.39029860  0.50364996    -0.11000
C49         C  0.30633953  0.37174332  0.54949660     0.03700
C50         C  0.27672764  0.34144834  0.54388372    -0.10400
H51         H  0.26148279  0.33937758  0.40817425     0.09300
H52         H  0.34281154  0.41353782  0.50777633     0.06800
H53         H  0.26669852  0.32687868  0.57915978     0.06700
C54         C  0.67523525  0.73591620  0.55595728     0.03700
C55         C  0.66021697  0.71969114  0.60300873    -0.12400
C56         C  0.62949540  0.68992121  0.60019775     0.01200
C57         C  0.61274718  0.67700809  0.55003427    -0.11000
C58         C  0.62678832  0.69344556  0.50281880     0.03700
C59         C  0.65844761  0.72244030  0.50615209    -0.10400
H60         H  0.67257579  0.73002142  0.64170180     0.09300
H61         H  0.58876828  0.65422922  0.54776955     0.06800
H62         H  0.66992359  0.73470474  0.46968938     0.06700
O63         O  0.03938613  0.10584809  0.54276685    -0.80300
O64         O  0.90980084  0.96953286  0.55340979    -0.65000
O65         O  0.01138229  0.03272284  0.52910351    -1.11600
C66         C  0.91300457  0.07705692  0.38569702     1.06600
O67         O  0.89706826  0.95747394  0.46727248    -0.78200
O68         O  0.94377150  0.99075807  0.38991958    -0.65800
Ni69       Ni  0.03725831  0.06240357  0.58563591     1.34900
C70         C  0.98605167  0.99966869  0.38860769     0.85300
O71         O  0.99398950  0.97621281  0.60045054    -0.78700
O72         O  0.03869896  0.02183200  0.63401329    -0.89000
C73         C  0.89233355  0.94954112  0.51618317     0.84900
O74         O  0.98060974  0.07934713  0.61312328    -0.67200
O75         O  0.88696614  0.04957049  0.39334710    -0.86500
C76         C  0.94317316  0.06236512  0.62000244     0.85700
C77         C  0.02149239  0.98979187  0.63662423     1.07300
H78         H  0.90808088  0.04584430  0.50462319     0.39100
O79         O  0.92946030  0.02929950  0.48830968    -1.09200
O80         O  0.00542238  0.02285455  0.42064719    -0.65800
Ni81       Ni  0.98162814  0.05806555  0.47069378     1.26300
O82         O  0.93315498  0.03210888  0.59703609    -0.66000
O83         O  0.95045710  0.08322977  0.41275559    -0.78300
C84         C  0.05156003  0.10843592  0.49483565     0.85100
O85         O  0.03509413  0.08719156  0.45850330    -0.65500
Ni86       Ni  0.89408157  0.00478505  0.43301125     1.27400
Ni87       Ni  0.96072396  0.00159981  0.54386583     1.26100
H88         H  0.03598012  0.01768683  0.51602039     0.39700
C89         C  0.73047046  0.82836766  0.52880849    -0.04900
C90         C  0.77523057  0.82373882  0.55233111     0.09300
C91         C  0.78656972  0.79099816  0.57953106    -0.02300
C92         C  0.75355717  0.76266744  0.58230443    -0.00500
C93         C  0.70885851  0.76697641  0.55786230    -0.04100
C94         C  0.69727827  0.80036023  0.53204424     0.02900
C95         C  0.81007590  0.85376000  0.54800035     0.09700
C96         C  0.83249756  0.78633671  0.60393726     0.35600
C97         C  0.65092376  0.80619549  0.50928751     0.39100
C98         C  0.80814961  0.88477046  0.58163358    -0.04500
C99         C  0.83571383  0.91574209  0.57222724     0.02700
C100        C  0.86636940  0.91564213  0.52954399    -0.04100
C101        C  0.87026728  0.88341927  0.49802717    -0.00300
C102        C  0.84204859  0.85275648  0.50713221    -0.02900
C103        C  0.77671201  0.88501408  0.62521538     0.36400
C104        C  0.90334208  0.88154599  0.45614458     0.40000
C105        C  0.82992447  0.94843667  0.60447252     0.39100
C106        C  0.84514333  0.82031386  0.47370979     0.36000
C107        C  0.71889127  0.86190451  0.50037346     0.36700
C108        C  0.76612998  0.72873206  0.60907277     0.40000
N109        N  0.82483995  0.97450606  0.63008465    -0.38100
N110        N  0.75166291  0.88504101  0.65999990    -0.39700
N111        N  0.92961256  0.88005370  0.42263798    -0.37400
N112        N  0.84766608  0.79435660  0.44722677    -0.39800
N113        N  0.86921148  0.78258516  0.62325432    -0.39600
N114        N  0.77596821  0.70171542  0.63070864    -0.37200
N115        N  0.61399347  0.81083420  0.49104612    -0.38300
N116        N  0.70990085  0.88867037  0.47765043    -0.39900
C117        C  0.15730510  0.16891761  0.50885543    -0.04900
C118        C  0.14305372  0.19993088  0.47889152     0.09300
C119        C  0.10052382  0.19895170  0.44885491    -0.02300
C120        C  0.07145410  0.16794984  0.45096789    -0.00500
C121        C  0.08490028  0.13774067  0.48293851    -0.04100
C122        C  0.12854037  0.13788360  0.51042714     0.02900
C123        C  0.17228239  0.23392391  0.48046448     0.09700
C124        C  0.08608582  0.23035642  0.41707883     0.35600
C125        C  0.14367095  0.10596585  0.54082730     0.39100
C126        C  0.21505249  0.23439255  0.45539972    -0.04500
C127        C  0.24368512  0.26562720  0.45944266     0.02700
C128        C  0.22934103  0.29707307  0.48757210    -0.04100
C129        C  0.18597450  0.29695069  0.51143790    -0.00300
C130        C  0.15792314  0.26534481  0.50860459    -0.02900
C131        C  0.22988525  0.20244222  0.42596065     0.36400
C132        C  0.16977751  0.32963005  0.53813370     0.40000
C133        C  0.28859427  0.26494994  0.43592376     0.39100
C134        C  0.11452751  0.26495220  0.53546002     0.36000
C135        C  0.20097764  0.16931276  0.53954650     0.36700
C136        C  0.02677444  0.16795204  0.42250266     0.40000
N137        N  0.32440655  0.26452828  0.41714416    -0.38100
N138        N  0.24182213  0.17682849  0.40283747    -0.39700
N139        N  0.15690190  0.35575076  0.55930283    -0.37400
N140        N  0.07985655  0.26466874  0.55676157    -0.39800
N141        N  0.07447984  0.25558180  0.39211839    -0.39600
N142        N  0.99110525  0.16812573  0.39980600    -0.37200
N143        N  0.15561347  0.08039840  0.56482482    -0.38300
N144        N  0.23590417  0.16947967  0.56382686    -0.39900
C145        C  0.30419109  0.43141646  0.32103900    -0.04900
C146        C  0.35161761  0.43096291  0.31033926     0.09300
C147        C  0.38328834  0.41343107  0.34630130    -0.02300
C148        C  0.36765318  0.39633717  0.39254983    -0.00500
C149        C  0.32018993  0.39699671  0.40364852    -0.04100
C150        C  0.28850846  0.41458939  0.36757184     0.02900
C151        C  0.36874544  0.44914694  0.26145566     0.09700
C152        C  0.43214370  0.41306815  0.33563021     0.35600
C153        C  0.23981016  0.41590289  0.37868944     0.39100
C154        C  0.37296698  0.48763088  0.25972263    -0.04500
C155        C  0.39420776  0.50443165  0.21650800     0.02700
C156        C  0.41318507  0.48262827  0.17587167    -0.04100
C157        C  0.40606200  0.44434275  0.17586167    -0.00300
C158        C  0.38339339  0.42774133  0.21817881    -0.02900
C159        C  0.35723902  0.50983869  0.30364317     0.36400
C160        C  0.42185658  0.42204682  0.13206477     0.40000
C161        C  0.39872322  0.54403119  0.21575630     0.39100
C162        C  0.37581290  0.38848515  0.21781102     0.36000
C163        C  0.27159488  0.44921622  0.28398142     0.36700
C164        C  0.40037403  0.37720670  0.42800423     0.40200
N165        N  0.40215502  0.57560965  0.21514943    -0.38100
N166        N  0.34466276  0.52754847  0.33866174    -0.39700
N167        N  0.43442792  0.40440055  0.09697417    -0.37400
N168        N  0.36964950  0.35717336  0.21751548    -0.39800
N169        N  0.47104746  0.41273115  0.32687298    -0.39600
N170        N  0.42641800  0.36195161  0.45634083    -0.37200
N171        N  0.20092488  0.41686886  0.38745616    -0.38300
N172        N  0.24577467  0.46359781  0.25438451    -0.39900
C173        C  0.36853941  0.37211521  0.68716525    -0.04900
C174        C  0.35479480  0.40631428  0.70788024     0.09300
C175        C  0.32560191  0.42933139  0.67614577    -0.02300
C176        C  0.30966521  0.41799748  0.62458448    -0.00500
C177        C  0.32357666  0.38387653  0.60375359    -0.04100
C178        C  0.35348109  0.36115047  0.63506360     0.02900
C179        C  0.37227823  0.41904036  0.76225820     0.09700
C180        C  0.31243895  0.46499806  0.69639225     0.35600
C181        C  0.36986887  0.32693290  0.61299699     0.39100
C182        C  0.41843017  0.43093061  0.77021364    -0.04500
C183        C  0.43343226  0.44716580  0.81925960     0.02700
C184        C  0.40178009  0.45332899  0.85992920    -0.04100
C185        C  0.35625122  0.43958627  0.85296590    -0.00300
C186        C  0.34191139  0.42181389  0.80476461    -0.02900
C187        C  0.44985945  0.42835848  0.72673729     0.36400
C188        C  0.32385844  0.44425570  0.89508452     0.40000
C189        C  0.48064290  0.46009767  0.82586459     0.39100
C190        C  0.29548761  0.40713624  0.79823666     0.36000
C191        C  0.39837622  0.34829478  0.71947746     0.36700
C192        C  0.27832143  0.44125000  0.59322708     0.40000
N193        N  0.51831084  0.47047391  0.83064206    -0.38100
N194        N  0.47486432  0.42632146  0.69200968    -0.39700
N195        N  0.29793701  0.44811748  0.92858347    -0.37400
N196        N  0.25849659  0.39533493  0.79295527    -0.39800
N197        N  0.30197914  0.49340772  0.71270717    -0.39600
N198        N  0.25331073  0.45974229  0.56813459    -0.37200
N199        N  0.38306222  0.29973892  0.59517656    -0.38300
N200        N  0.42235963  0.32941125  0.74525370    -0.39900
C201        C  0.55304623  0.65533881  0.24802079    -0.04900
C202        C  0.55521690  0.63725112  0.29780112     0.09300
C203        C  0.54146259  0.60038018  0.30059453    -0.02300
C204        C  0.52741526  0.58112179  0.25381451    -0.00500
C205        C  0.52694180  0.59858413  0.20319227    -0.04100
C206        C  0.53855967  0.63617119  0.20081113     0.02900
C207        C  0.57420278  0.65580715  0.34761185     0.09700
C208        C  0.54298457  0.58192081  0.35190575     0.35600
C209        C  0.53762397  0.65473299  0.14973574     0.39100
C210        C  0.54411787  0.67222464  0.38362224    -0.04500
C211        C  0.56123242  0.68464388  0.43425619     0.02700
C212        C  0.60855755  0.68043080  0.44936854    -0.04100
C213        C  0.63874492  0.66453128  0.41284066    -0.00300
C214        C  0.62166811  0.65254638  0.36205350    -0.02900
C215        C  0.49535756  0.67559912  0.36880571     0.36400
C216        C  0.68709374  0.65908613  0.42837647     0.40000
C217        C  0.53016415  0.70187895  0.47076709     0.39100
C218        C  0.65269588  0.63586841  0.32497812     0.36000
C219        C  0.56696941  0.69337045  0.24537902     0.36700
C220        C  0.51354238  0.54307976  0.25839752     0.40000
N221        N  0.50546127  0.71558216  0.50004336    -0.38100
N222        N  0.45645016  0.67822963  0.35688366    -0.39700
N223        N  0.72560879  0.65468558  0.44096506    -0.37400
N224        N  0.67736155  0.62260584  0.29525920    -0.39800
N225        N  0.54433002  0.56731791  0.39286019    -0.39600
N226        N  0.50292075  0.51271900  0.26262220    -0.37200
N227        N  0.53676293  0.66957131  0.10896252    -0.38300
N228        N  0.57822349  0.72371565  0.24334800    -0.39900
C229        C  0.56280268  0.67006115  0.72473288    -0.04900
C230        C  0.58056837  0.63536073  0.73956887     0.09300
C231        C  0.61661726  0.61979134  0.71080072    -0.02300
C232        C  0.63361777  0.63816610  0.66620926    -0.00500
C233        C  0.61440362  0.67210513  0.64988913    -0.04100
C234        C  0.57954178  0.68831818  0.67990316     0.02900
C235        C  0.55834994  0.61379996  0.78231927     0.09700
C236        C  0.63539974  0.58444591  0.72654823     0.35600
C237        C  0.55994848  0.72328678  0.66358212     0.39100
C238        C  0.51923330  0.59218727  0.76877751    -0.04500
C239        C  0.49636592  0.57321217  0.80876038     0.02700
C240        C  0.51281081  0.57526144  0.86287493    -0.04100
C241        C  0.55309543  0.59581619  0.87609645    -0.00300
C242        C  0.57561099  0.61520211  0.83592147    -0.02900
C243        C  0.50241326  0.58965112  0.71339076     0.36400
C244        C  0.57025814  0.59836186  0.93127501     0.40000
C245        C  0.45591951  0.55138007  0.79378901     0.39100
C246        C  0.61611716  0.63712233  0.84970322     0.36000
C247        C  0.52660205  0.68657073  0.75510307     0.36700
C248        C  0.67077449  0.62211400  0.63688533     0.40000
N249        N  0.42359391  0.53419320  0.78146883    -0.38100
N250        N  0.48918220  0.58762765  0.66917230    -0.39700
N251        N  0.58400050  0.60043114  0.97530384    -0.37400
N252        N  0.64846673  0.65464539  0.86061589    -0.39800
N253        N  0.65024327  0.55623620  0.73935653    -0.39600
N254        N  0.70052205  0.60939324  0.61353469    -0.37200
N255        N  0.54438555  0.75117517  0.65036520    -0.38300
N256        N  0.49777977  0.69971200  0.77948391    -0.39900
C257        C  0.06550518  0.89227778  0.20335622    -0.04900
C258        C  0.08239428  0.92721765  0.21871048     0.09300
C259        C  0.11796831  0.94342963  0.19021465    -0.02300
C260        C  0.13549909  0.92529461  0.14548074    -0.00500
C261        C  0.11699320  0.89119157  0.12858237    -0.04100
C262        C  0.08255594  0.87438021  0.15817754     0.02900
C263        C  0.06002927  0.94792858  0.26240307     0.09700
C264        C  0.13585173  0.97905371  0.20637403     0.35600
C265        C  0.06383635  0.83913794  0.14126686     0.39100
C266        C  0.07777978  0.94602907  0.31572659    -0.04500
C267        C  0.05455377  0.96380517  0.35714703     0.02700
C268        C  0.01296676  0.98298431  0.34541923    -0.04100
C269        C  0.99561286  0.98513179  0.29168184    -0.00300
C270        C  0.01937391  0.96803466  0.25040785    -0.02900
C271        C  0.11924547  0.92488461  0.32793474     0.36400
C272        C  0.95309504  0.00486981  0.27851312     0.40000
C273        C  0.07217304  0.96076711  0.41204441     0.39100
C274        C  0.00170059  0.97068823  0.19537811     0.36000
C275        C  0.02999304  0.87511758  0.23373652     0.36700
C276        C  0.17271625  0.94154698  0.11675688     0.40000
N277        N  0.08617853  0.95826110  0.45588635    -0.38100
N278        N  0.15227505  0.90785931  0.33746323    -0.39700
N279        N  0.91902742  0.02026671  0.26774874    -0.37400
N280        N  0.98773761  0.97279446  0.15146871    -0.39800
N281        N  0.15017169  0.00749319  0.21922395    -0.39600
N282        N  0.20255352  0.95418568  0.09372886    -0.37200
N283        N  0.04890895  0.81102706  0.12772591    -0.38300
N284        N  0.00174747  0.86155404  0.25825364    -0.39900
C285        C  0.05855752  0.91237524  0.73142310    -0.04900
C286        C  0.06041081  0.93107542  0.78093149     0.09300
C287        C  0.04645962  0.96792098  0.78359559    -0.02300
C288        C  0.03339378  0.98683801  0.73655614    -0.00500
C289        C  0.03308512  0.96865862  0.68614796    -0.04100
C290        C  0.04465208  0.93101584  0.68406669     0.02900
C291        C  0.07947815  0.91291549  0.83039166     0.09700
C292        C  0.04573028  0.98639710  0.83511412     0.35600
C293        C  0.04429766  0.91178820  0.63319243     0.39100
C294        C  0.12685643  0.91660832  0.84500263    -0.04500
C295        C  0.14434853  0.90293901  0.89439113     0.02700
C296        C  0.11462832  0.88485975  0.92890691    -0.04100
C297        C  0.06749482  0.88017302  0.91339806    -0.00300
C298        C  0.04980715  0.89476294  0.86467467    -0.02900
C299        C  0.15724685  0.93543456  0.80966518     0.36400
C300        C  0.03735337  0.85994007  0.94737712     0.40000
C301        C  0.19252737  0.90866155  0.91051628     0.39100
C302        C  0.00085431  0.89216969  0.85044763     0.36000
C303        C  0.07152290  0.87404534  0.72940382     0.36700
C304        C  0.02004577  0.02509862  0.74072903     0.40000
N305        N  0.23093315  0.91332748  0.92341557    -0.38100
N306        N  0.18129432  0.95048759  0.78130685    -0.39700
N307        N  0.01354014  0.84362949  0.97454746    -0.37400
N308        N  0.96173993  0.89041598  0.83921057    -0.39800
N309        N  0.04487998  0.00098244  0.87624135    -0.39600
N310        N  0.00977106  0.05562525  0.74448193    -0.37200
N311        N  0.04399539  0.89638252  0.59262821    -0.38300
N312        N  0.08178647  0.84342315  0.72803320    -0.39900
C313        C  0.28735300  0.77175987  0.06676967    -0.04900
C314        C  0.27451402  0.73747734  0.04440635     0.09300
C315        C  0.23055895  0.73315238  0.01841952    -0.02300
C316        C  0.19933821  0.76274355  0.01560899    -0.00500
C317        C  0.21236701  0.79717592  0.03744043    -0.04100
C318        C  0.25674479  0.80172094  0.06231523     0.02900
C319        C  0.30775277  0.70610133  0.04620607     0.09700
C320        C  0.21761479  0.69824126  0.99412746     0.35600
C321        C  0.27154136  0.83758297  0.08155230     0.39100
C322        C  0.29952688  0.67534703  0.07842353    -0.04500
C323        C  0.32753919  0.64387254  0.07488929     0.02700
C324        C  0.36445612  0.64332740  0.03973697    -0.04100
C325        C  0.37478922  0.67521658  0.01075301    -0.00300
C326        C  0.34607925  0.70624054  0.01326494    -0.02900
C327        C  0.26126311  0.67575922  0.11397062     0.36400
C328        C  0.41528788  0.67625043  0.97854774     0.40000
C329        C  0.31666148  0.61148982  0.10522696     0.39100
C330        C  0.35516675  0.73791430  0.98057629     0.36000
C331        C  0.33216091  0.77618296  0.09422106     0.36700
C332        C  0.15356597  0.75759399  0.99078281     0.40000
N333        N  0.30786305  0.58566640  0.12937286    -0.38100
N334        N  0.23058107  0.67608090  0.14208845    -0.39700
N335        N  0.44768395  0.67698770  0.95307898    -0.37400
N336        N  0.36252781  0.76322205  0.95466397    -0.39800
N337        N  0.20732865  0.67033873  0.97495302    -0.39600
N338        N  0.11709159  0.75357228  0.97089009    -0.37200
N339        N  0.28329643  0.86628425  0.09651612    -0.38300
N340        N  0.36797717  0.77969378  0.11596089    -0.39900
C341        C  0.86649955  0.18998856  0.17745635    -0.04900
C342        C  0.85584438  0.15387117  0.19233701     0.09300
C343        C  0.83046923  0.13103015  0.15608079    -0.02300
C344        C  0.81546555  0.14428833  0.10545375    -0.00500
C345        C  0.82702119  0.18020513  0.08982754    -0.04100
C346        C  0.85269584  0.20297844  0.12617297     0.02900
C347        C  0.87206203  0.13921769  0.24571769     0.09700
C348        C  0.82027939  0.09359456  0.17079065     0.35600
C349        C  0.86630376  0.23941679  0.11046517     0.39100
C350        C  0.84009328  0.13297386  0.28566010    -0.04500
C351        C  0.85385309  0.11410700  0.33273133     0.02700
C352        C  0.90000174  0.10198261  0.34069521    -0.04100
C353        C  0.93281761  0.11075768  0.30236023    -0.00300
C354        C  0.91872846  0.12900878  0.25487378    -0.02900
C355        C  0.79270088  0.14532408  0.27762954     0.36400
C356        C  0.98058389  0.09904330  0.30986013     0.40000
C357        C  0.82037477  0.10704307  0.37287755     0.39100
C358        C  0.95190442  0.13594988  0.21431661     0.36000
C359        C  0.89194295  0.21368253  0.21497235     0.36700
C360        C  0.78726574  0.12108976  0.06989009     0.40000
N361        N  0.79367606  0.10129789  0.40487330    -0.38100
N362        N  0.75489488  0.15516640  0.27112275    -0.39700
N363        N  0.01869024  0.08979881  0.31581284    -0.37400
N364        N  0.97835669  0.14161471  0.18201821    -0.39800
N365        N  0.81224403  0.06377889  0.18275714    -0.39600
N366        N  0.76478125  0.10259880  0.04151625    -0.37200
N367        N  0.87752326  0.26852700  0.09847238    -0.38300
N368        N  0.91235802  0.23247984  0.24493430    -0.39900
C369        C  0.88517457  0.14977852  0.82802995    -0.04900
C370        C  0.85276390  0.12890039  0.79695036     0.09300
C371        C  0.80695787  0.12584512  0.81348829    -0.02300
C372        C  0.79353545  0.14395716  0.86036878    -0.00500
C373        C  0.82548890  0.16600090  0.89022106    -0.04100
C374        C  0.87151084  0.16849254  0.87421031     0.02900
C375        C  0.86759666  0.11022562  0.74697465     0.09700
C376        C  0.77368403  0.10405930  0.78223812     0.35600
C377        C  0.90476467  0.19057907  0.90508176     0.39100
C378        C  0.87639086  0.07219073  0.74657796    -0.04500
C379        C  0.89759781  0.05580141  0.70267123     0.02700
C380        C  0.91130235  0.07762683  0.65950238    -0.04100
C381        C  0.89903082  0.11507282  0.65808073    -0.00300
C382        C  0.87678043  0.13119874  0.70141634    -0.02900
C383        C  0.86546242  0.05017941  0.79241223     0.36400
C384        C  0.90944540  0.13702948  0.61201567     0.40000
C385        C  0.90795796  0.01689425  0.70388731     0.39100
C386        C  0.86423943  0.16965598  0.69986502     0.36000
C387        C  0.93280468  0.15175145  0.81253478     0.36700
C388        C  0.74729636  0.13883991  0.87897184     0.40000
N389        N  0.91613272  0.98586101  0.70510174    -0.38100
N390        N  0.85655743  0.03254606  0.82882895    -0.39700
N391        N  0.91772226  0.15445813  0.57516379    -0.37400
N392        N  0.85409225  0.20031627  0.69873412    -0.39800
N393        N  0.74718481  0.08653456  0.75742651    -0.39600
N394        N  0.71053734  0.13429218  0.89399583    -0.37200
N395        N  0.93127492  0.20813838  0.92982460    -0.38300
N396        N  0.97073754  0.15322199  0.79997309    -0.39900
C397        C  0.63805447  0.38879190  0.94532295    -0.04900
C398        C  0.64449252  0.36073015  0.98332299     0.09300
C399        C  0.62133000  0.36246612  0.03150815    -0.02300
C400        C  0.59018453  0.39119081  0.04091368    -0.00500
C401        C  0.58439037  0.42044618  0.00362528    -0.04100
C402        C  0.60950722  0.41915861  0.95610678     0.02900
C403        C  0.67704619  0.32967670  0.97428285     0.09700
C404        C  0.63089177  0.33507218  0.07243567     0.35600
C405        C  0.60909443  0.45003589  0.91990608     0.39100
C406        C  0.72488754  0.33444362  0.98492647    -0.04500
C407        C  0.75492456  0.30403901  0.98400880     0.02700
C408        C  0.73720081  0.26861536  0.97305889    -0.04100
C409        C  0.68958870  0.26414791  0.96004962    -0.00300
C410        C  0.65960643  0.29461308  0.96065955    -0.02900
C411        C  0.74285055  0.37050427  0.99875706     0.36400
C412        C  0.67106411  0.22802257  0.94804839     0.40000
C413        C  0.80411794  0.30925001  0.99430311     0.39100
C414        C  0.61046501  0.28979597  0.94914044     0.36000
C415        C  0.66171877  0.38669269  0.89550544     0.36700
C416        C  0.56452645  0.38995554  0.08949883     0.40000
N417        N  0.84337376  0.31372475  0.00211349    -0.38100
N418        N  0.75694104  0.39934889  0.00975759    -0.39700
N419        N  0.65591194  0.19930778  0.93844975    -0.37400
N420        N  0.57121995  0.28602712  0.94018597    -0.39800
N421        N  0.63900254  0.31345918  0.10516824    -0.39600
N422        N  0.54452641  0.38877112  0.12850726    -0.37200
N423        N  0.60967728  0.47485231  0.89138469    -0.38300
N424        N  0.68054910  0.38496332  0.85572287    -0.39900
loop_ 
_geom_bond_atom_site_label_1 
_geom_bond_atom_site_label_2 
_geom_bond_distance 
_geom_bond_site_symmetry_2 
_ccdc_geom_bond_type 
C1            C2   1.403       .  A
C1            C6   1.404   1_556  A
C1          C408   1.487       .  S
C2            C3   1.404       .  A
C2            H7   1.084       .  S
C3            C4   1.403       .  A
C3          C373   1.488       .  S
C4            C5   1.405   1_556  A
C4            H8   1.084       .  S
C5            C6   1.404       .  A
C5          C345   1.494       .  S
C6            H9   1.084       .  S
C10          C11   1.403   1_554  A
C10          C15   1.404       .  A
C10         C317   1.485       .  S
C11          C12   1.401       .  A
C11          H16   1.084       .  S
C12          C13   1.403   1_556  A
C12         C296   1.485       .  S
C13          C14   1.402       .  A
C13          H17   1.084       .  S
C14          C15   1.400       .  A
C14         C261   1.483       .  S
C15          H18   1.084       .  S
O19         Ni25   1.925       .  S
O19          C40   1.271   1_556  A
O20         Ni43   1.913       .  S
O20          C29   1.271   1_556  A
O21         Ni25   1.901   1_554  S
O21         Ni43   1.902   1_554  S
O21         Ni37   1.918       .  S
O21          H44   0.966       .  S
C22         C205   1.495       .  S
C22          O39   1.277       .  A
C22          O31   1.273       .  A
O23         Ni42   1.918       .  S
O23          C29   1.269       .  A
O24         Ni42   1.907       .  S
O24          C26   1.269       .  A
Ni25         O28   1.921       .  S
Ni25         O30   1.905       .  S
C26         C156   1.487       .  S
C26          O36   1.271       .  A
O27         Ni43   1.930       .  S
O27          C33   1.278       .  A
O28          C33   1.276       .  A
C29         C401   1.504       .  S
O30          C32   1.269       .  A
O31         Ni42   1.916       .  S
C32         C240   1.490       .  S
C32          O38   1.276       .  A
C33         C184   1.491       .  S
H34          O35   0.966       .  S
O35         Ni43   1.919   1_554  S
O35         Ni37   1.910       .  S
O35         Ni42   1.905       .  S
O36         Ni37   1.928       .  S
Ni37         O41   1.905       .  S
Ni37         O39   1.929       .  S
O38         Ni43   1.939       .  S
C40         C324   1.483       .  S
C40          O41   1.267       .  A
C45          C46   1.404       .  A
C45          C50   1.404       .  A
C45         C128   1.493       .  S
C46          C47   1.404       .  A
C46          H51   1.084       .  S
C47          C48   1.406       .  A
C47         C149   1.493       .  S
C48          C49   1.404       .  A
C48          H52   1.084       .  S
C49          C50   1.403       .  A
C49         C177   1.491       .  S
C50          H53   1.084       .  S
C54          C55   1.407       .  A
C54          C59   1.405       .  A
C54          C93   1.495       .  S
C55          C56   1.405       .  A
C55          H60   1.084       .  S
C56          C57   1.405       .  A
C56         C233   1.489       .  S
C57          C58   1.404       .  A
C57          H61   1.084       .  S
C58          C59   1.401       .  A
C58         C212   1.492       .  S
C59          H62   1.084       .  S
O63         Ni69   1.923       .  S
O63          C84   1.269       .  A
O64         Ni87   1.908   1_565  S
O64          C73   1.268       .  A
O65         Ni69   1.905       .  S
O65         Ni87   1.907   1_455  S
O65         Ni81   1.908   1_455  S
O65          H88   0.966       .  S
C66         C352   1.488       .  S
C66          O83   1.273       .  A
C66          O75   1.276       .  A
O67         Ni86   1.933   1_565  S
O67          C73   1.273       .  A
O68         Ni86   1.904   1_565  S
O68          C70   1.269       .  A
Ni69         O72   1.918       .  S
Ni69         O74   1.908   1_455  S
C70         C268   1.487   1_655  S
C70          O80   1.276   1_665  A
O71         Ni87   1.920   1_565  S
O71          C77   1.278   1_655  A
O72          C77   1.275   1_545  A
C73         C100   1.496       .  S
O74          C76   1.268       .  A
O75         Ni86   1.924       .  S
C76         C380   1.487       .  S
C76          O82   1.270       .  A
C77         C289   1.490       .  S
H78          O79   0.966       .  S
O79         Ni87   1.919       .  S
O79         Ni81   1.910       .  S
O79         Ni86   1.906       .  S
O80         Ni81   1.937   1_455  S
Ni81         O85   1.916   1_655  S
Ni81         O83   1.914       .  S
O82         Ni87   1.929       .  S
C84         C121   1.482       .  S
C84          O85   1.269       .  A
C89          C90   1.411       .  A
C89          C94   1.409       .  A
C89         C107   1.451       .  S
C90          C91   1.410       .  A
C90          C95   1.498       .  S
C91          C92   1.414       .  A
C91          C96   1.450       .  S
C92          C93   1.417       .  A
C92         C108   1.451       .  S
C93          C94   1.416       .  A
C94          C97   1.452       .  S
C95          C98   1.409       .  A
C95         C102   1.410       .  A
C96         N113   1.157       .  T
C97         N115   1.157       .  T
C98          C99   1.412       .  A
C98         C103   1.451       .  S
C99         C100   1.418       .  A
C99         C105   1.451       .  S
C100        C101   1.420       .  A
C101        C102   1.412       .  A
C101        C104   1.452       .  S
C102        C106   1.451       .  S
C103        N110   1.157       .  T
C104        N111   1.158       .  T
C105        N109   1.157       .  T
C106        N112   1.157       .  T
C107        N116   1.157       .  T
C108        N114   1.157       .  T
C117        C118   1.413       .  A
C117        C122   1.409       .  A
C117        C135   1.451       .  S
C118        C119   1.415       .  A
C118        C123   1.503       .  S
C119        C120   1.414       .  A
C119        C124   1.450       .  S
C120        C121   1.411       .  A
C120        C136   1.450       .  S
C121        C122   1.413       .  A
C122        C125   1.452       .  S
C123        C126   1.413       .  A
C123        C130   1.414       .  A
C124        N141   1.157       .  T
C125        N143   1.157       .  T
C126        C127   1.411       .  A
C126        C131   1.451       .  S
C127        C128   1.415       .  A
C127        C133   1.451       .  S
C128        C129   1.414       .  A
C129        C130   1.412       .  A
C129        C132   1.451       .  S
C130        C134   1.451       .  S
C131        N138   1.157       .  T
C132        N139   1.157       .  T
C133        N137   1.157       .  T
C134        N140   1.157       .  T
C135        N144   1.157       .  T
C136        N142   1.157   1_455  T
C145        C146   1.411       .  A
C145        C150   1.412       .  A
C145        C163   1.450       .  S
C146        C147   1.412       .  A
C146        C151   1.499       .  S
C147        C148   1.410       .  A
C147        C152   1.451       .  S
C148        C149   1.415       .  A
C148        C164   1.451       .  S
C149        C150   1.415       .  A
C150        C153   1.450       .  S
C151        C154   1.412       .  A
C151        C158   1.412       .  A
C152        N169   1.157       .  T
C153        N171   1.157       .  T
C154        C155   1.411       .  A
C154        C159   1.451       .  S
C155        C156   1.417       .  A
C155        C161   1.452       .  S
C156        C157   1.413       .  A
C157        C158   1.410       .  A
C157        C160   1.451       .  S
C158        C162   1.450       .  S
C159        N166   1.157       .  T
C160        N167   1.157       .  T
C161        N165   1.158       .  T
C162        N168   1.157       .  T
C163        N172   1.157       .  T
C164        N170   1.157       .  T
C173        C174   1.413       .  A
C173        C178   1.413       .  A
C173        C191   1.450       .  S
C174        C175   1.414       .  A
C174        C179   1.503       .  S
C175        C176   1.411       .  A
C175        C180   1.451       .  S
C176        C177   1.413       .  A
C176        C192   1.451       .  S
C177        C178   1.414       .  A
C178        C181   1.451       .  S
C179        C182   1.412       .  A
C179        C186   1.413       .  A
C180        N197   1.157       .  T
C181        N199   1.157       .  T
C182        C183   1.412       .  A
C182        C187   1.451       .  S
C183        C184   1.416       .  A
C183        C189   1.450       .  S
C184        C185   1.415       .  A
C185        C186   1.413       .  A
C185        C188   1.450       .  S
C186        C190   1.450       .  S
C187        N194   1.157       .  T
C188        N195   1.157       .  T
C189        N193   1.156       .  T
C190        N196   1.157       .  T
C191        N200   1.157       .  T
C192        N198   1.157       .  T
C201        C202   1.412       .  A
C201        C206   1.418       .  A
C201        C219   1.449       .  S
C202        C203   1.407       .  A
C202        C207   1.499       .  S
C203        C204   1.407       .  A
C203        C208   1.453       .  S
C204        C205   1.421       .  A
C204        C220   1.453       .  S
C205        C206   1.416       .  A
C206        C209   1.450       .  S
C207        C210   1.411       .  A
C207        C214   1.411       .  A
C208        N225   1.157       .  T
C209        N227   1.157       .  T
C210        C211   1.413       .  A
C210        C215   1.450       .  S
C211        C212   1.415       .  A
C211        C217   1.451       .  S
C212        C213   1.414       .  A
C213        C214   1.411       .  A
C213        C216   1.451       .  S
C214        C218   1.450       .  S
C215        N222   1.157       .  T
C216        N223   1.157       .  T
C217        N221   1.157       .  T
C218        N224   1.157       .  T
C219        N228   1.157       .  T
C220        N226   1.157       .  T
C229        C230   1.412       .  A
C229        C234   1.412       .  A
C229        C247   1.450       .  S
C230        C231   1.411       .  A
C230        C235   1.500       .  S
C231        C232   1.413       .  A
C231        C236   1.450       .  S
C232        C233   1.413       .  A
C232        C248   1.450       .  S
C233        C234   1.412       .  A
C234        C237   1.450       .  S
C235        C238   1.410       .  A
C235        C242   1.412       .  A
C236        N253   1.157       .  T
C237        N255   1.157       .  T
C238        C239   1.410       .  A
C238        C243   1.452       .  S
C239        C240   1.418       .  A
C239        C245   1.452       .  S
C240        C241   1.414       .  A
C241        C242   1.415       .  A
C241        C244   1.450       .  S
C242        C246   1.449       .  S
C243        N250   1.157       .  T
C244        N251   1.157       .  T
C245        N249   1.157       .  T
C246        N252   1.157       .  T
C247        N256   1.157       .  T
C248        N254   1.157       .  T
C257        C258   1.412       .  A
C257        C262   1.410       .  A
C257        C275   1.450       .  S
C258        C259   1.411       .  A
C258        C263   1.496       .  S
C259        C260   1.410       .  A
C259        C264   1.449       .  S
C260        C261   1.411       .  A
C260        C276   1.451       .  S
C261        C262   1.411       .  A
C262        C265   1.451       .  S
C263        C266   1.411       .  A
C263        C270   1.409       .  A
C264        N281   1.157   1_565  T
C265        N283   1.157       .  T
C266        C267   1.414       .  A
C266        C271   1.449       .  S
C267        C268   1.413       .  A
C267        C273   1.450       .  S
C268        C269   1.418   1_455  A
C269        C270   1.408   1_655  A
C269        C272   1.453   1_565  S
C270        C274   1.452       .  S
C271        N278   1.157       .  T
C272        N279   1.157       .  T
C273        N277   1.157       .  T
C274        N280   1.157   1_455  T
C275        N284   1.157       .  T
C276        N282   1.157       .  T
C285        C286   1.410       .  A
C285        C290   1.413       .  A
C285        C303   1.450       .  S
C286        C287   1.406       .  A
C286        C291   1.492       .  S
C287        C288   1.406       .  A
C287        C292   1.453       .  S
C288        C289   1.422       .  A
C288        C304   1.453   1_565  S
C289        C290   1.415       .  A
C290        C293   1.450       .  S
C291        C294   1.411       .  A
C291        C298   1.409       .  A
C292        N309   1.157   1_565  T
C293        N311   1.157       .  T
C294        C295   1.409       .  A
C294        C299   1.451       .  S
C295        C296   1.413       .  A
C295        C301   1.451       .  S
C296        C297   1.413       .  A
C297        C298   1.409       .  A
C297        C300   1.451       .  S
C298        C302   1.450       .  S
C299        N306   1.157       .  T
C300        N307   1.157       .  T
C301        N305   1.157       .  T
C302        N308   1.157   1_455  T
C303        N312   1.157       .  T
C304        N310   1.158       .  T
C313        C314   1.412       .  A
C313        C318   1.409       .  A
C313        C331   1.451       .  S
C314        C315   1.413       .  A
C314        C319   1.495       .  S
C315        C316   1.408       .  A
C315        C320   1.452   1_554  S
C316        C317   1.413       .  A
C316        C332   1.452   1_554  S
C317        C318   1.413       .  A
C318        C321   1.451       .  S
C319        C322   1.413       .  A
C319        C326   1.411       .  A
C320        N337   1.157       .  T
C321        N339   1.157       .  T
C322        C323   1.410       .  A
C322        C327   1.451       .  S
C323        C324   1.414       .  A
C323        C329   1.451       .  S
C324        C325   1.415       .  A
C325        C326   1.407       .  A
C325        C328   1.452   1_554  S
C326        C330   1.451   1_554  S
C327        N334   1.157       .  T
C328        N335   1.157       .  T
C329        N333   1.157       .  T
C330        N336   1.157       .  T
C331        N340   1.157       .  T
C332        N338   1.157       .  T
C341        C342   1.410       .  A
C341        C346   1.412       .  A
C341        C359   1.451       .  S
C342        C343   1.412       .  A
C342        C347   1.498       .  S
C343        C344   1.410       .  A
C343        C348   1.452       .  S
C344        C345   1.415       .  A
C344        C360   1.451       .  S
C345        C346   1.416       .  A
C346        C349   1.449       .  S
C347        C350   1.411       .  A
C347        C354   1.411       .  A
C348        N365   1.157       .  T
C349        N367   1.157       .  T
C350        C351   1.410       .  A
C350        C355   1.450       .  S
C351        C352   1.414       .  A
C351        C357   1.451       .  S
C352        C353   1.418       .  A
C353        C354   1.411       .  A
C353        C356   1.452       .  S
C354        C358   1.451       .  S
C355        N362   1.157       .  T
C356        N363   1.158   1_655  T
C357        N361   1.157       .  T
C358        N364   1.157       .  T
C359        N368   1.157       .  T
C360        N366   1.157       .  T
C369        C370   1.414       .  A
C369        C374   1.410       .  A
C369        C387   1.451       .  S
C370        C371   1.412       .  A
C370        C375   1.500       .  S
C371        C372   1.412       .  A
C371        C376   1.450       .  S
C372        C373   1.413       .  A
C372        C388   1.450       .  S
C373        C374   1.412       .  A
C374        C377   1.451       .  S
C375        C378   1.412       .  A
C375        C382   1.412       .  A
C376        N393   1.157       .  T
C377        N395   1.157       .  T
C378        C379   1.412       .  A
C378        C383   1.451       .  S
C379        C380   1.417       .  A
C379        C385   1.452       .  S
C380        C381   1.412       .  A
C381        C382   1.411       .  A
C381        C384   1.451       .  S
C382        C386   1.450       .  S
C383        N390   1.157       .  T
C384        N391   1.157       .  T
C385        N389   1.158   1_545  T
C386        N392   1.157       .  T
C387        N396   1.157       .  T
C388        N394   1.157       .  T
C397        C398   1.409       .  A
C397        C402   1.414       .  A
C397        C415   1.450       .  S
C398        C399   1.406   1_556  A
C398        C403   1.496       .  S
C399        C400   1.408       .  A
C399        C404   1.454       .  S
C400        C401   1.427       .  A
C400        C416   1.453       .  S
C401        C402   1.421   1_554  A
C402        C405   1.450       .  S
C403        C406   1.411       .  A
C403        C410   1.411       .  A
C404        N421   1.157       .  T
C405        N423   1.157       .  T
C406        C407   1.410       .  A
C406        C411   1.451       .  S
C407        C408   1.413       .  A
C407        C413   1.450       .  S
C408        C409   1.413       .  A
C409        C410   1.411       .  A
C409        C412   1.449       .  S
C410        C414   1.451       .  S
C411        N418   1.157   1_556  T
C412        N419   1.157       .  T
C413        N417   1.157   1_556  T
C414        N420   1.157       .  T
C415        N424   1.157       .  T
C416        N422   1.158       .  T
