geometry optimzed in LAMMPS
_audit_creation_date              2020-11-30 
_audit_creation_method            'lammps2cif' 
_symmetry_space_group_name_H-M    'P1' 
_symmetry_Int_Tables_number       1 
_symmetry_cell_setting            triclinic 
loop_ 
_symmetry_equiv_pos_as_xyz 
  x,y,z 
_cell_length_a                    33.89579212 
_cell_length_b                    33.83501253381769 
_cell_length_c                    25.101586830759857 
_cell_angle_alpha                 99.58267002145993 
_cell_angle_beta                  84.15156475265009 
_cell_angle_gamma                 90.05225892056991 
loop_ 
_atom_site_label 
_atom_site_type_symbol 
_atom_site_fract_x 
_atom_site_fract_y 
_atom_site_fract_z 
_atom_site_charge 
N1          N  0.80325583  0.19352205  0.98900626    -0.02000
C2          C  0.76674304  0.21124799  0.00260354     0.00600
C3          C  0.75032704  0.20263570  0.05198496    -0.22300
C4          C  0.77744022  0.17925284  0.06981226    -0.22500
C5          C  0.80954345  0.17406974  0.03072304     0.00500
H6          H  0.72307705  0.21505371  0.07486576     0.14200
H7          H  0.77529604  0.16954230  0.10896006     0.14300
N8          N  0.26641341  0.93122899  0.90372122    -0.02000
C9          C  0.30195985  0.91134342  0.89464166     0.00600
C10         C  0.31747763  0.90952559  0.84115374    -0.22300
C11         C  0.29048485  0.92837475  0.81623992    -0.22500
C12         C  0.25943952  0.94126402  0.85527099     0.00500
H13         H  0.34438393  0.89406414  0.82155494     0.14200
H14         H  0.29260423  0.93125626  0.77374644     0.14300
Zr15       Zr  0.55806565  0.54452172  0.10061533     2.17500
O16         O  0.62039564  0.53128903  0.13570741    -0.49900
O17         O  0.52069260  0.50913130  0.16746055    -0.73100
O18         O  0.57107270  0.59428195  0.17987827    -0.79900
O19         O  0.58945803  0.46237113  0.97805231    -0.81600
O20         O  0.53093939  0.64882648  0.18343498    -0.77200
O21         O  0.59806532  0.48244421  0.06713738    -0.88900
O22         O  0.45790401  0.50175419  0.14419287    -0.74800
O23         O  0.49358632  0.57513650  0.12249447    -0.84300
O24         O  0.51491787  0.50354575  0.04630017    -0.84000
O25         O  0.56403776  0.61132682  0.07743749    -0.70800
O26         O  0.58313279  0.54581237  0.00747450    -0.82900
Zr27       Zr  0.47971562  0.59930617  0.95329521     2.26400
Zr28       Zr  0.49875937  0.64124737  0.09930117     2.06300
Zr29       Zr  0.53935383  0.50478949  0.95362583     2.10000
Zr30       Zr  0.45083729  0.53429424  0.06759655     1.78800
O31         O  0.59099228  0.48171321  0.88026501    -0.91700
O32         O  0.39882239  0.56330548  0.13731121    -0.39500
O33         O  0.47383600  0.53287111  0.97391974    -0.76200
O34         O  0.45410750  0.60054334  0.04634755    -0.94800
O35         O  0.52254764  0.64154299  0.00640859    -0.88100
O36         O  0.54432338  0.57019892  0.93101061    -0.91000
C37         C  0.48492989  0.49650617  0.17443096     1.02800
C38         C  0.60562829  0.45893149  0.02104087     1.15700
C39         C  0.55735167  0.62925907  0.20237423     1.06500
O40         O  0.44558139  0.65741040  0.17268643    -0.93100
O41         O  0.45533160  0.68893952  0.06708913    -0.88900
O42         O  0.44579292  0.66345253  0.97973098    -0.82000
C43         C  0.44025100  0.69052851  0.02223108     1.13100
O44         O  0.65160794  0.61531986  0.01841153    -0.95100
Zr45       Zr  0.58674531  0.61190379  0.98400041     1.88900
O46         O  0.51280586  0.63556258  0.88691305    -0.71800
O47         O  0.52629497  0.70829820  0.11487722    -0.51000
O48         O  0.60552721  0.68155320  0.00878231    -0.95700
O49         O  0.63885008  0.58271636  0.91444393    -0.52900
O50         O  0.57658174  0.64456130  0.90630098    -0.72300
C51         C  0.54799659  0.64833454  0.87733949     1.00100
O52         O  0.41289729  0.59807617  0.92489125    -0.61100
O53         O  0.50523647  0.44097775  0.94352104    -0.55900
O54         O  0.47645250  0.55624056  0.86608474    -0.92600
O55         O  0.51591660  0.50155047  0.86423698    -0.91000
O56         O  0.42943583  0.46565595  0.04167527    -0.91400
O57         O  0.38617046  0.53058298  0.03276644    -0.90800
C58         C  0.49297117  0.52292401  0.84223242     1.18900
H59         H  0.51467165  0.47650470  0.05401583     0.34800
H60         H  0.42785271  0.61253628  0.05307189     0.45700
H61         H  0.55325492  0.56848762  0.89292606     0.39200
H62         H  0.58289359  0.62687707  0.09818617     0.35700
H63         H  0.38411752  0.54000906  0.14781381     0.27500
H64         H  0.50877303  0.72308552  0.14572263     0.33400
H65         H  0.59811712  0.68808544  0.04842902     0.39300
H66         H  0.40961169  0.46107144  0.07174549     0.33800
H67         H  0.51449318  0.42745401  0.90627580     0.32700
H68         H  0.58442525  0.45352166  0.86686945     0.34400
H69         H  0.63054333  0.58817279  0.87965425     0.33300
H70         H  0.38055383  0.55800823  0.02634487     0.37300
H71         H  0.40662656  0.56929806  0.91601310     0.30100
H72         H  0.61348387  0.52994401  0.17465241     0.34300
H73         H  0.66799144  0.63180185  0.99585978     0.37100
H74         H  0.51760036  0.42521446  0.96748244     0.29800
H75         H  0.39529773  0.60759621  0.95854084     0.42600
H76         H  0.42094327  0.65572353  0.15443107     0.32700
H77         H  0.41291250  0.57383603  0.16924725     0.40300
H78         H  0.63597467  0.55340680  0.91244430     0.32100
H79         H  0.55180213  0.70526120  0.12989998     0.32200
H80         H  0.63596273  0.55602656  0.13519216     0.32500
N81         N  0.37275660  0.36026922  0.48268990    -0.02000
C82         C  0.34474829  0.33132902  0.48122240     0.00600
C83         C  0.34063557  0.31655583  0.52955875    -0.22300
C84         C  0.36666433  0.33682145  0.56200768    -0.22500
C85         C  0.38600062  0.36343935  0.53257854     0.00500
H86         H  0.32045350  0.29362019  0.54017073     0.14200
H87         H  0.37050020  0.33316480  0.60320043     0.14300
N88         N  0.65960387  0.79196145  0.53267674    -0.02000
C89         C  0.67996188  0.82675516  0.53608366     0.00600
C90         C  0.66646004  0.85279762  0.58278375    -0.22300
C91         C  0.63697961  0.83354085  0.60938314    -0.22500
C92         C  0.63345521  0.79629907  0.57814131     0.00500
H93         H  0.67951909  0.88098535  0.59858467     0.14200
H94         H  0.62277770  0.84379140  0.64995100     0.14300
Zr95       Zr  0.05946623  0.09416517  0.35832500     2.17500
O96         O  0.05404721  0.15580127  0.32098372    -0.49900
O97         O  0.09987972  0.05538234  0.28172616    -0.73100
O98         O  0.11995660  0.13311905  0.36430845    -0.79900
O99         O  0.96040594  0.06234920  0.31140707    -0.81600
O100        O  0.14544625  0.12348111  0.44151085    -0.77200
O101        O  0.01607822  0.09490676  0.28712198    -0.88900
O102        O  0.10881308  0.99265968  0.30002881    -0.74800
O103        O  0.10184467  0.05293250  0.39677582    -0.84300
O104        O  0.03155000  0.02910633  0.34771594    -0.84000
O105        O  0.05862924  0.12489121  0.45204849    -0.70800
O106        O  0.99375182  0.10269176  0.40516492    -0.82900
Zr107      Zr  0.00715502  0.02504260  0.52978958     2.26400
Zr108      Zr  0.10034076  0.08230275  0.49028437     2.06300
Zr109      Zr  0.96693722  0.03700885  0.39554052     2.10000
Zr110      Zr  0.07305591  0.98838313  0.38749868     1.78800
O111        O  0.90044050  0.06654964  0.41362336    -0.91700
O112        O  0.13993692  0.96630562  0.39721977    -0.39500
O113        O  0.00832167  0.99554594  0.43560111    -0.76200
O114        O  0.07282176  0.01643935  0.48176903    -0.94800
O115        O  0.03553735  0.09003924  0.53919099    -0.88100
O116        O  0.96478983  0.06559619  0.48979804    -0.91000
C117        C  0.11406077  0.01944234  0.26943304     1.02800
C118        C  0.98130748  0.08166655  0.27892564     1.15700
C119        C  0.14641469  0.13889664  0.39789461     1.06500
O120        O  0.16487601  0.04900762  0.48296153    -0.93100
O121        O  0.10916410  0.05907621  0.57463714    -0.88900
O122        O  0.05432640  0.02489544  0.59846914    -0.82000
C123        C  0.08920195  0.03851985  0.60633752     1.13100
O124        O  0.98929425  0.19516805  0.47013730    -0.95100
Zr125      Zr  0.99328231  0.13037609  0.49953505     1.88900
O126        O  0.96494463  0.06379748  0.60611633    -0.71800
O127        O  0.11741151  0.14037047  0.55465367    -0.51000
O128        O  0.01987019  0.18522295  0.56049083    -0.95700
O129        O  0.92506633  0.15066873  0.49354073    -0.52900
O130        O  0.96072304  0.12730338  0.58915392    -0.72300
C131        C  0.95337478  0.10071454  0.61956787     1.00100
O132        O  0.00420276  0.96443523  0.57077661    -0.61100
O133        O  0.94516063  0.98398972  0.32706250    -0.55900
O134        O  0.95222573  0.97812988  0.51334018    -0.92600
O135        O  0.93125619  0.98408865  0.43186813    -0.91000
O136        O  0.04516169  0.93672350  0.32312906    -0.91400
O137        O  0.07163422  0.92187394  0.41260387    -0.90200
C138        C  0.93001023  0.96783966  0.47461134     1.18900
H139        H  0.03007899  0.01821777  0.30986179     0.34800
H140        H  0.08869050  0.99906024  0.49828136     0.45700
H141        H  0.93799635  0.06605664  0.50728974     0.39200
H142        H  0.06947074  0.15143309  0.45453932     0.35700
H143        H  0.14493955  0.94205992  0.36919237     0.27500
H144        H  0.14666552  0.13892198  0.55358354     0.33400
H145        H  0.03454308  0.17199225  0.58498517     0.39300
H146        H  0.01648023  0.93714104  0.33567830     0.33800
H147        H  0.92055547  0.99453903  0.31601747     0.32700
H148        H  0.88248414  0.04346887  0.40785932     0.34400
H149        H  0.91937844  0.17322334  0.52400851     0.33300
H150        H  0.05399272  0.92499520  0.44705069     0.37300
H151        H  0.03163574  0.95336753  0.56552583     0.30100
H152        H  0.07722598  0.15543331  0.29348269     0.34300
H153        H  0.99497225  0.18911602  0.43011437     0.37100
H154        H  0.96489969  0.98293076  0.29492591     0.29800
H155        H  0.99866517  0.97368070  0.61038874     0.42600
H156        H  0.18456834  0.07054161  0.48178667     0.32700
H157        H  0.15745095  0.98676484  0.38383589     0.40300
H158        H  0.90837324  0.12871416  0.50425985     0.32100
H159        H  0.11214271  0.16384832  0.53741936     0.32200
H160        H  0.05912710  0.17772888  0.35077196     0.32500
C161        C  0.79106126  0.82900679  0.51625694     0.14100
C162        C  0.79688290  0.86182394  0.48864528     0.01100
C163        C  0.76425892  0.87736887  0.46776683     0.16100
C164        C  0.72617630  0.86240664  0.47767375     0.25500
C165        C  0.71991330  0.83163321  0.50854930    -0.40900
C166        C  0.75282574  0.81403635  0.52612526     0.32500
C167        C  0.83568574  0.88248212  0.48505823     0.01100
F168        F  0.76873178  0.90933696  0.44152478    -0.13200
F169        F  0.74739613  0.78488238  0.55724146    -0.13700
C170        C  0.85381049  0.88864757  0.43439326     0.16100
C171        C  0.88555062  0.91486401  0.43103219     0.25500
C172        C  0.90030856  0.93550560  0.47852551    -0.40800
C173        C  0.88411343  0.92681558  0.52915702     0.32400
C174        C  0.85201009  0.90069113  0.53238225     0.14100
F175        F  0.83968421  0.87032995  0.38795261    -0.13200
F176        F  0.89750457  0.94557189  0.57584735    -0.13700
F177        F  0.90109098  0.92070357  0.38095646    -0.16000
F178        F  0.83514541  0.89541700  0.58206324    -0.14500
F179        F  0.82204319  0.81268708  0.53577548    -0.14500
F180        F  0.69488662  0.88002393  0.46061433    -0.15900
C181        C  0.30719232  0.25567122  0.37399313     0.14100
C182        C  0.26631018  0.25935982  0.39142686     0.01100
C183        C  0.25215377  0.29411144  0.42700825     0.16100
C184        C  0.27862004  0.32233866  0.44936021     0.25500
C185        C  0.31979207  0.31614344  0.43737858    -0.40900
C186        C  0.33380916  0.28396094  0.39688388     0.32500
C187        C  0.23928888  0.22474070  0.38151698     0.01100
F188        F  0.21307022  0.29824300  0.44557149    -0.13200
F189        F  0.37341238  0.27732996  0.38432602    -0.13700
C190        C  0.24611684  0.18998757  0.40340077     0.16100
C191        C  0.21669211  0.16109874  0.40614907     0.25500
C192        C  0.17967442  0.16624229  0.38705128    -0.40800
C193        C  0.17389501  0.19970870  0.36170861     0.32400
C194        C  0.20338260  0.22869499  0.35916649     0.14100
F195        F  0.28019222  0.18543555  0.42603534    -0.13200
F196        F  0.13866929  0.20600648  0.34290264    -0.13700
F197        F  0.22403113  0.12865816  0.42922228    -0.16000
F198        F  0.19606429  0.26177335  0.33743446    -0.14500
F199        F  0.32156349  0.22302306  0.33828086    -0.14500
F200        F  0.26428952  0.35279325  0.48887722    -0.15900
C201        C  0.47397214  0.46546109  0.31465697     0.14100
C202        C  0.44081400  0.44030626  0.31080633     0.01100
C203        C  0.42472102  0.43150838  0.26097630     0.16100
C204        C  0.44041248  0.44828775  0.21638853     0.25500
C205        C  0.47254543  0.47488465  0.22040959    -0.40900
C206        C  0.48965491  0.48269704  0.26988613     0.32500
C207        C  0.42346616  0.42172267  0.35749859     0.01100
F208        F  0.39390152  0.40600341  0.25516287    -0.13200
F209        F  0.52042390  0.50823341  0.27570730    -0.13700
C210        C  0.38268911  0.42637882  0.37580318     0.16100
C211        C  0.36568904  0.40562647  0.41621489     0.25500
C212        C  0.38918503  0.38012211  0.43913594    -0.40800
C213        C  0.42986944  0.37589576  0.42137976     0.32400
C214        C  0.44688288  0.39651891  0.38109243     0.14100
F215        F  0.35942124  0.45124625  0.35472202    -0.13200
F216        F  0.45295773  0.35088584  0.44239581    -0.13700
F217        F  0.32660349  0.41117398  0.43399731    -0.16000
F218        F  0.48601830  0.39072126  0.36372308    -0.14500
F219        F  0.49046120  0.47426679  0.36220657    -0.14500
F220        F  0.42398760  0.43820657  0.16894911    -0.15900
C221        C  0.50527547  0.47273235  0.69427008     0.14100
C222        C  0.46566637  0.47142300  0.68169446     0.01100
C223        C  0.43589541  0.49011770  0.72103450     0.16100
C224        C  0.44526774  0.50879646  0.77206301     0.25500
C225        C  0.48433339  0.50769014  0.78588370    -0.40900
C226        C  0.51445010  0.49026649  0.74615247     0.32500
C227        C  0.45406963  0.44604092  0.63146964     0.01100
F228        F  0.39714970  0.48768752  0.71164015    -0.13200
F229        F  0.55274358  0.49017386  0.75762635    -0.13700
C230        C  0.46385958  0.40490891  0.62127574     0.16100
C231        C  0.44451799  0.37854623  0.58396280     0.25500
C232        C  0.41476183  0.39255782  0.55637845    -0.40800
C233        C  0.40765509  0.43407945  0.56236114     0.32400
C234        C  0.42757484  0.46070647  0.59922673     0.14100
F235        F  0.48903190  0.38946596  0.65153195    -0.13200
F236        F  0.37855257  0.44852896  0.53718123    -0.13700
F237        F  0.45233029  0.33862490  0.57834143    -0.16000
F238        F  0.41879099  0.50051739  0.60645253    -0.14500
F239        F  0.53491567  0.45602352  0.65682740    -0.14500
F240        F  0.41556592  0.52565399  0.80926016    -0.15900
C241        C  0.61083581  0.76058138  0.40512749     0.14100
C242        C  0.62373810  0.72038840  0.38935922     0.01100
C243        C  0.65167194  0.70523471  0.41920558     0.16100
C244        C  0.66504210  0.72928441  0.46498907     0.25500
C245        C  0.65050471  0.76862947  0.48197911    -0.40900
C246        C  0.62382349  0.78426028  0.45109435     0.32500
C247        C  0.60702373  0.69445057  0.34288135     0.01100
F248        F  0.66486312  0.66668046  0.40533023    -0.13200
F249        F  0.60946790  0.82233424  0.46660558    -0.13700
C250        C  0.63191368  0.67444213  0.29818282     0.16100
C251        C  0.61575253  0.65198091  0.25345767     0.25500
C252        C  0.57435200  0.64943585  0.25211479    -0.40800
C253        C  0.54951475  0.66874321  0.29720510     0.32400
C254        C  0.56563546  0.69061524  0.34225380     0.14100
F255        F  0.67188973  0.67800894  0.29675115    -0.13200
F256        F  0.50950606  0.66610886  0.29784514    -0.13700
F257        F  0.64061078  0.63445392  0.21014154    -0.16000
F258        F  0.54069657  0.70800949  0.38557107    -0.14500
F259        F  0.58538611  0.77691846  0.37607919    -0.14500
F260        F  0.69164973  0.71401346  0.49326463    -0.15900
C261        C  0.54847409  0.66889841  0.73299478     0.14100
C262        C  0.57556297  0.70027138  0.73276506     0.01100
C263        C  0.59180162  0.71602699  0.78108932     0.16100
C264        C  0.58264515  0.69948498  0.82827483     0.25500
C265        C  0.55634511  0.66735659  0.82835674    -0.40900
C266        C  0.53878839  0.65265444  0.78044506     0.32500
C267        C  0.58776197  0.71680702  0.68256373     0.01100
F268        F  0.61631196  0.74787211  0.78259925    -0.13200
F269        F  0.51339442  0.62149767  0.77890955    -0.13700
C270        C  0.56132512  0.74046926  0.66115763     0.16100
C271        C  0.57548470  0.76367020  0.62204278     0.25500
C272        C  0.61604516  0.76281368  0.60317018    -0.40800
C273        C  0.64166626  0.73631136  0.62107021     0.32400
C274        C  0.62760800  0.71344292  0.66035658     0.14100
F275        F  0.52254462  0.74364319  0.68136067    -0.13200
F276        F  0.68119503  0.73604469  0.60534343    -0.13700
F277        F  0.55023579  0.78922722  0.60560392    -0.16000
F278        F  0.65350567  0.69007772  0.67961180    -0.14500
F279        F  0.53219963  0.65334182  0.68697150    -0.14500
F280        F  0.59896689  0.71536044  0.87414439    -0.15900
C281        C  0.24314366  0.97747078  0.05018163     0.14100
C282        C  0.20266381  0.96924551  0.05942533     0.01100
C283        C  0.18320754  0.94828818  0.01673554     0.16100
C284        C  0.20389285  0.93595168  0.96541976     0.25500
C285        C  0.24439282  0.94436229  0.95600454    -0.40900
C286        C  0.26378432  0.96522659  0.99892465     0.32500
C287        C  0.18065948  0.98277717  0.11347204     0.01100
F288        F  0.14436119  0.93894064  0.02522602    -0.13200
F289        F  0.30267901  0.97440447  0.99078759    -0.13700
C290        C  0.14958225  0.01111286  0.11954143     0.16100
C291        C  0.12850362  0.02379550  0.17044579     0.25500
C292        C  0.13767982  0.00772102  0.21607929    -0.40800
C293        C  0.16898015  0.97939824  0.20984924     0.32400
C294        C  0.19057926  0.96745761  0.15914694     0.14100
F295        F  0.13988756  0.02675275  0.07608538    -0.13200
F296        F  0.17905093  0.96360300  0.25301452    -0.13700
F297        F  0.09834645  0.05089906  0.17467323    -0.16000
F298        F  0.22085893  0.94044584  0.15445188    -0.14500
F299        F  0.26248113  0.99804748  0.09061175    -0.14500
F300        F  0.18471035  0.91446955  0.92570370    -0.15900
C301        C  0.16782903  0.95240915  0.78663812     0.14100
C302        C  0.16858494  0.99345900  0.78320347     0.01100
C303        C  0.19504183  0.01823997  0.81289361     0.16100
C304        C  0.22209501  0.00170401  0.84218430     0.25500
C305        C  0.22328958  0.96023420  0.84190345    -0.40900
C306        C  0.19534771  0.93588012  0.81501099     0.32500
C307        C  0.14703474  0.00851675  0.74154559     0.01100
F308        F  0.19658887  0.05797871  0.81030281    -0.13200
F309        F  0.19711347  0.89546820  0.81208932    -0.13700
C310        C  0.10572284  0.00483996  0.74107369     0.16100
C311        C  0.08668441  0.01487883  0.69776422     0.25500
C312        C  0.10857478  0.02925897  0.65411422    -0.40800
C313        C  0.14999406  0.03360464  0.65570135     0.32400
C314        C  0.16883109  0.02302461  0.69846317     0.14100
F315        F  0.08384505  0.99108275  0.78234878    -0.13200
F316        F  0.17299067  0.04653303  0.61470804    -0.13700
F317        F  0.04685789  0.01025965  0.69862871    -0.16000
F318        F  0.20899047  0.02493328  0.69623618    -0.14500
F319        F  0.14324167  0.92757559  0.75781580    -0.14500
F320        F  0.24957207  0.02555283  0.86656916    -0.15900
C321        C  0.31269037  0.83029067  0.97941726     0.14100
C322        C  0.35410288  0.82864810  0.98048957     0.01100
C323        C  0.37735859  0.85831126  0.96000537     0.16100
C324        C  0.35975248  0.88759074  0.93622927     0.25500
C325        C  0.31871196  0.88736107  0.93166156    -0.40900
C326        C  0.29521934  0.85902549  0.95463056     0.32500
C327        C  0.37330921  0.79332020  0.99624886     0.01100
F328        F  0.41745315  0.85716753  0.95927072    -0.13200
F329        F  0.25589424  0.85668862  0.94869290    -0.13700
C330        C  0.36659187  0.75473737  0.96843448     0.16100
C331        C  0.38693643  0.72144943  0.97892191     0.25500
C332        C  0.41495555  0.72570020  0.01743200    -0.40800
C333        C  0.42027491  0.76418111  0.04724171     0.32400
C334        C  0.39990795  0.79770594  0.03632951     0.14100
F335        F  0.34155236  0.74937728  0.92896597    -0.13200
F336        F  0.44639580  0.76974299  0.08524446    -0.13700
F337        F  0.37944173  0.68496315  0.95040840    -0.16000
F338        F  0.40658593  0.83458665  0.06434163    -0.14500
F339        F  0.28933238  0.80258598  0.99979187    -0.14500
F340        F  0.38309210  0.91502099  0.91512775    -0.15900
C341        C  0.96471097  0.12409497  0.15080184     0.14100
C342        C  0.92603935  0.11141945  0.14198781     0.01100
C343        C  0.90720761  0.08605541  0.17542850     0.16100
C344        C  0.92570286  0.07521133  0.21830030     0.25500
C345        C  0.96360439  0.08975135  0.22944531    -0.40900
C346        C  0.98340866  0.11327445  0.19374654     0.32500
C347        C  0.90361647  0.12752064  0.10191345     0.01100
F348        F  0.86975867  0.07336640  0.16859077    -0.13200
F349        F  0.02060441  0.12667578  0.20072843    -0.13700
C350        C  0.88313430  0.10172701  0.06441647     0.16100
C351        C  0.85507834  0.11720441  0.03557970     0.25500
C352        C  0.84785605  0.15866767  0.04271211    -0.40800
C353        C  0.87090870  0.18457625  0.07622319     0.32400
C354        C  0.89835458  0.16921838  0.10581211     0.14100
F355        F  0.88856093  0.06140708  0.05821721    -0.13200
F356        F  0.86371810  0.22474026  0.08479750    -0.13700
F357        F  0.83264546  0.09160925  0.00420449    -0.16000
F358        F  0.91680479  0.19508360  0.14228872    -0.14500
F359        F  0.98422146  0.14761858  0.11826042    -0.14500
F360        F  0.90565666  0.05121005  0.24965593    -0.15900
C361        C  0.88912928  0.10070345  0.75438203     0.14100
C362        C  0.88785228  0.14174233  0.77727658     0.01100
C363        C  0.90780814  0.16886847  0.74774926     0.16100
C364        C  0.92889104  0.15548951  0.69702217     0.25500
C365        C  0.93048155  0.11437487  0.67383571    -0.40900
C366        C  0.90998325  0.08718672  0.70317154     0.32500
C367        C  0.86562885  0.15652743  0.83158377     0.01100
F368        F  0.90640309  0.20874539  0.76769096    -0.13200
F369        F  0.90940627  0.04758030  0.68199998    -0.13700
C370        C  0.88458288  0.17971126  0.87339445     0.16100
C371        C  0.86376548  0.19331058  0.92448773     0.25500
C372        C  0.82360166  0.18421096  0.93485455    -0.40800
C373        C  0.80436277  0.16195981  0.89275146     0.32400
C374        C  0.82512409  0.14820236  0.84175910     0.14100
F375        F  0.92362323  0.18834713  0.86521537    -0.13200
F376        F  0.76564928  0.15232980  0.90170887    -0.13700
F377        F  0.88282525  0.21535223  0.96395251    -0.16000
F378        F  0.80554083  0.12686742  0.80216896    -0.14500
F379        F  0.87066979  0.07349981  0.78202213    -0.14500
F380        F  0.94816442  0.18314220  0.67100530    -0.15900
C381        C  0.65748049  0.36360120  0.04210496     0.14100
C382        C  0.68463403  0.35569324  0.99504724     0.01100
C383        C  0.68745991  0.38331485  0.95898469     0.16100
C384        C  0.66255757  0.41741854  0.96859651     0.25500
C385        C  0.63496277  0.42527920  0.01532911    -0.40900
C386        C  0.63320115  0.39831355  0.05252696     0.32500
C387        C  0.70887346  0.31792620  0.98316880     0.01100
F388        F  0.71337078  0.37648940  0.91337583    -0.13200
F389        F  0.60647943  0.40433973  0.09732355    -0.13700
C390        C  0.69038356  0.28084547  0.97043654     0.16100
C391        C  0.71125240  0.24492224  0.96928949     0.25500
C392        C  0.75103065  0.24540413  0.98063726    -0.40800
C393        C  0.77066129  0.28229055  0.98795937     0.32400
C394        C  0.74976155  0.31832431  0.98887256     0.14100
F395        F  0.65146036  0.27955653  0.96192502    -0.13200
F396        F  0.80873992  0.28379639  0.00046833    -0.13700
F397        F  0.69169518  0.20971601  0.96172350    -0.16000
F398        F  0.76868187  0.35369962  0.99955064    -0.14500
F399        F  0.65405395  0.33721912  0.07753066    -0.14500
F400        F  0.66505662  0.44266213  0.93166816    -0.15900
loop_ 
_geom_bond_atom_site_label_1 
_geom_bond_atom_site_label_2 
_geom_bond_distance 
_geom_bond_site_symmetry_2 
_ccdc_geom_bond_type 
N1            C5   1.360   1_556  A
N1            C2   1.362   1_556  A
N1          C372   1.445       .  S
C2            C3   1.382       .  A
C2          C392   1.482   1_554  S
C3            C4   1.369       .  A
C3            H6   1.083       .  S
C4            C5   1.380       .  A
C4            H7   1.082       .  S
C5          C352   1.477       .  S
N8           C12   1.359       .  A
N8            C9   1.360       .  A
N8          C285   1.444       .  S
C9           C10   1.383       .  A
C9          C325   1.485       .  S
C10          C11   1.373       .  A
C10          H13   1.082       .  S
C11          C12   1.381       .  A
C11          H14   1.082       .  S
C12         C305   1.477       .  S
Zr15         O16   2.440       .  S
Zr15         O17   2.467       .  S
Zr15         O18   2.460       .  S
Zr15         O21   2.478       .  S
Zr15         O23   2.392       .  S
Zr15         O24   2.386       .  S
Zr15         O25   2.429       .  S
Zr15         O26   2.412       .  S
O16          H72   0.990       .  S
O16          H80   0.990       .  S
O17          C37   1.290       .  A
O18          C39   1.289       .  A
O19         Zr29   2.414       .  S
O19          C38   1.281   1_556  A
O20         Zr28   2.450       .  S
O20          C39   1.288       .  A
O21          C38   1.293       .  A
O22         Zr30   2.401       .  S
O22          C37   1.278       .  A
O23         Zr28   2.405       .  S
O23         Zr30   2.383       .  S
O24         Zr29   2.396   1_554  S
O24         Zr30   2.381       .  S
O24          H59   0.966       .  S
O25         Zr28   2.407       .  S
O25         Zr45   2.396   1_554  S
O25          H62   0.966       .  S
O26         Zr29   2.395   1_554  S
O26         Zr45   2.405   1_554  S
Zr27         O52   2.441       .  S
Zr27         O46   2.416       .  S
Zr27         O54   2.432       .  S
Zr27         O42   2.417       .  S
Zr27         O33   2.393       .  S
Zr27         O34   2.401   1_556  S
Zr27         O35   2.384   1_556  S
Zr27         O36   2.377       .  S
Zr28         O47   2.438       .  S
Zr28         O40   2.435       .  S
Zr28         O41   2.471       .  S
Zr28         O34   2.398       .  S
Zr28         O35   2.390       .  S
Zr29         O31   2.435       .  S
Zr29         O53   2.436       .  S
Zr29         O55   2.441       .  S
Zr29         O33   2.389       .  S
Zr29         O36   2.376       .  S
Zr30         O56   2.436       .  S
Zr30         O57   2.437       .  S
Zr30         O32   2.437       .  S
Zr30         O33   2.393   1_554  S
Zr30         O34   2.389       .  S
O31          H68   0.990       .  S
O32          H63   0.990       .  S
O32          H77   0.990       .  S
O34          H60   0.966       .  S
O35         Zr45   2.371   1_554  S
O36         Zr45   2.364       .  S
O36          H61   0.965       .  S
C37         C205   1.492       .  S
C38         C385   1.491       .  S
C39         C252   1.490       .  S
O40          H76   0.990       .  S
O41          C43   1.292       .  A
O42          C43   1.283   1_556  A
C43         C332   1.495       .  S
O44         Zr45   2.439   1_554  S
O44          H73   0.990   1_554  S
Zr45         O48   2.436   1_556  S
Zr45         O49   2.438       .  S
Zr45         O50   2.449       .  S
O46          C51   1.282       .  A
O47          H64   0.990       .  S
O47          H79   0.990       .  S
O48          H65   0.989       .  S
O49          H69   0.990       .  S
O49          H78   0.990       .  S
O50          C51   1.288       .  A
C51         C265   1.483       .  S
O52          H71   0.990       .  S
O52          H75   0.990       .  S
O53          H67   0.990       .  S
O53          H74   0.990       .  S
O54          C58   1.285       .  A
O55          C58   1.286       .  A
O56          H66   0.990       .  S
O57          H70   0.990       .  S
C58         C225   1.481       .  S
N81          C85   1.361       .  A
N81          C82   1.362       .  A
N81         C212   1.441       .  S
C82          C83   1.382       .  A
C82         C185   1.480       .  S
C83          C84   1.368       .  A
C83          H86   1.083       .  S
C84          C85   1.381       .  A
C84          H87   1.082       .  S
C85         C232   1.483       .  S
N88          C92   1.359       .  A
N88          C89   1.359       .  A
N88         C245   1.443       .  S
C89          C90   1.381       .  A
C89         C165   1.478       .  S
C90          C91   1.370       .  A
C90          H93   1.083       .  S
C91          C92   1.381       .  A
C91          H94   1.083       .  S
C92         C272   1.479       .  S
Zr95         O96   2.439       .  S
Zr95         O97   2.433       .  S
Zr95         O98   2.440       .  S
Zr95        O101   2.431       .  S
Zr95        O103   2.382       .  S
Zr95        O104   2.380       .  S
Zr95        O105   2.406       .  S
Zr95        O106   2.405   1_455  S
O96         H152   0.990       .  S
O96         H160   0.990       .  S
O97         C117   1.285       .  A
O98         C119   1.285       .  A
O99        Zr109   2.438       .  S
O99         C118   1.286       .  A
O100       Zr108   2.441       .  S
O100        C119   1.286       .  A
O101        C118   1.284   1_455  A
O102       Zr110   2.424       .  S
O102        C117   1.283   1_565  A
O103       Zr108   2.387       .  S
O103       Zr110   2.377   1_545  S
O104       Zr109   2.381   1_455  S
O104       Zr110   2.371   1_545  S
O104        H139   0.967       .  S
O105       Zr108   2.395       .  S
O105       Zr125   2.398   1_455  S
O105        H142   0.965       .  S
O106       Zr109   2.384       .  S
O106       Zr125   2.396       .  S
Zr107       O132   2.440   1_545  S
Zr107       O126   2.459   1_455  S
Zr107       O134   2.468   1_445  S
Zr107       O122   2.468       .  S
Zr107       O113   2.405   1_545  S
Zr107       O114   2.414       .  S
Zr107       O115   2.385       .  S
Zr107       O116   2.389   1_455  S
Zr108       O127   2.437       .  S
Zr108       O120   2.438       .  S
Zr108       O121   2.424       .  S
Zr108       O114   2.400       .  S
Zr108       O115   2.397       .  S
Zr109       O111   2.435       .  S
Zr109       O133   2.439   1_545  S
Zr109       O135   2.411   1_545  S
Zr109       O113   2.389   1_645  S
Zr109       O116   2.396       .  S
Zr110       O136   2.435       .  S
Zr110       O137   2.435       .  S
Zr110       O112   2.436       .  S
Zr110       O113   2.386       .  S
Zr110       O114   2.398   1_565  S
O111        H148   0.990       .  S
O112        H143   0.990       .  S
O112        H157   0.990       .  S
O114        H140   0.966   1_545  S
O115       Zr125   2.377   1_455  S
O116       Zr125   2.380       .  S
O116        H141   0.967       .  S
C117        C292   1.482       .  S
C118        C345   1.498       .  S
C119        C192   1.490       .  S
O120        H156   0.990       .  S
O121        C123   1.284       .  A
O122        C123   1.290       .  A
C123        C312   1.501       .  S
O124       Zr125   2.435       .  S
O124        H153   0.990       .  S
Zr125       O128   2.435   1_655  S
Zr125       O129   2.439       .  S
Zr125       O130   2.421       .  S
O126        C131   1.289       .  A
O127        H144   0.990       .  S
O127        H159   0.990       .  S
O128        H145   0.990       .  S
O129        H149   0.990       .  S
O129        H158   0.989       .  S
O130        C131   1.282       .  A
C131        C365   1.499       .  S
O132        H151   0.991       .  S
O132        H155   0.990   1_455  S
O133        H147   0.990       .  S
O133        H154   0.990       .  S
O134        C138   1.292       .  A
O135        C138   1.282       .  A
O136        H146   0.990       .  S
O137        H150   0.990       .  S
C138        C172   1.495       .  S
C161        C162   1.407       .  A
C161        C166   1.405       .  A
C161        F179   1.358       .  S
C162        C163   1.409       .  A
C162        C167   1.491       .  S
C163        C164   1.400       .  A
C163        F168   1.358       .  S
C164        C165   1.402       .  A
C164        F180   1.357       .  S
C165        C166   1.408       .  A
C166        F169   1.358       .  S
C167        C170   1.403       .  A
C167        C174   1.409       .  A
C170        C171   1.399       .  A
C170        F175   1.358       .  S
C171        C172   1.415       .  A
C171        F177   1.358       .  S
C172        C173   1.409       .  A
C173        C174   1.406       .  A
C173        F176   1.357       .  S
C174        F178   1.357       .  S
C181        C182   1.409       .  A
C181        C186   1.408       .  A
C181        F199   1.358       .  S
C182        C183   1.405       .  A
C182        C187   1.490       .  S
C183        C184   1.398       .  A
C183        F188   1.358       .  S
C184        C185   1.406       .  A
C184        F200   1.358       .  S
C185        C186   1.407       .  A
C186        F189   1.357       .  S
C187        C190   1.407       .  A
C187        C194   1.407       .  A
C190        C191   1.401       .  A
C190        F195   1.358       .  S
C191        C192   1.409       .  A
C191        F197   1.358       .  S
C192        C193   1.411       .  A
C193        C194   1.404       .  A
C193        F196   1.357       .  S
C194        F198   1.358       .  S
C201        C202   1.411       .  A
C201        C206   1.408       .  A
C201        F219   1.358       .  S
C202        C203   1.402       .  A
C202        C207   1.490       .  S
C203        C204   1.396       .  A
C203        F208   1.358       .  S
C204        C205   1.413       .  A
C204        F220   1.358       .  S
C205        C206   1.409       .  A
C206        F209   1.358       .  S
C207        C210   1.412       .  A
C207        C214   1.405       .  A
C210        C211   1.404       .  A
C210        F215   1.358       .  S
C211        C212   1.404       .  A
C211        F217   1.357       .  S
C212        C213   1.405       .  A
C213        C214   1.399       .  A
C213        F216   1.357       .  S
C214        F218   1.357       .  S
C221        C222   1.409       .  A
C221        C226   1.403       .  A
C221        F239   1.358       .  S
C222        C223   1.408       .  A
C222        C227   1.490       .  S
C223        C224   1.398       .  A
C223        F228   1.358       .  S
C224        C225   1.405       .  A
C224        F240   1.358       .  S
C225        C226   1.408       .  A
C226        F229   1.358       .  S
C227        C230   1.406       .  A
C227        C234   1.411       .  A
C230        C231   1.396       .  A
C230        F235   1.358       .  S
C231        C232   1.405       .  A
C231        F237   1.358       .  S
C232        C233   1.406       .  A
C233        C234   1.404       .  A
C233        F236   1.357       .  S
C234        F238   1.358       .  S
C241        C242   1.409       .  A
C241        C246   1.401       .  A
C241        F259   1.358       .  S
C242        C243   1.412       .  A
C242        C247   1.498       .  S
C243        C244   1.408       .  A
C243        F248   1.357       .  S
C244        C245   1.402       .  A
C244        F260   1.356       .  S
C245        C246   1.407       .  A
C246        F249   1.358       .  S
C247        C250   1.409       .  A
C247        C254   1.410       .  A
C250        C251   1.407       .  A
C250        F255   1.358       .  S
C251        C252   1.409       .  A
C251        F257   1.358       .  S
C252        C253   1.406       .  A
C253        C254   1.404       .  A
C253        F256   1.358       .  S
C254        F258   1.358       .  S
C261        C262   1.403       .  A
C261        C266   1.402       .  A
C261        F279   1.358       .  S
C262        C263   1.407       .  A
C262        C267   1.483       .  S
C263        C264   1.399       .  A
C263        F268   1.358       .  S
C264        C265   1.405       .  A
C264        F280   1.358       .  S
C265        C266   1.412       .  A
C266        F269   1.358       .  S
C267        C270   1.405       .  A
C267        C274   1.405       .  A
C270        C271   1.404       .  A
C270        F275   1.358       .  S
C271        C272   1.406       .  A
C271        F277   1.357       .  S
C272        C273   1.405       .  A
C273        C274   1.399       .  A
C273        F276   1.357       .  S
C274        F278   1.358       .  S
C281        C282   1.404       .  A
C281        C286   1.399   1_554  A
C281        F299   1.358       .  S
C282        C283   1.406       .  A
C282        C287   1.481       .  S
C283        C284   1.401   1_554  A
C283        F288   1.358       .  S
C284        C285   1.406       .  A
C284        F300   1.355       .  S
C285        C286   1.408       .  A
C286        F289   1.357       .  S
C287        C290   1.404   1_565  A
C287        C294   1.405       .  A
C290        C291   1.400       .  A
C290        F295   1.358       .  S
C291        C292   1.409       .  A
C291        F297   1.358       .  S
C292        C293   1.409   1_545  A
C293        C294   1.399       .  A
C293        F296   1.358       .  S
C294        F298   1.358       .  S
C301        C302   1.406       .  A
C301        C306   1.400       .  A
C301        F319   1.358       .  S
C302        C303   1.410   1_565  A
C302        C307   1.490   1_565  S
C303        C304   1.403       .  A
C303        F308   1.358       .  S
C304        C305   1.403   1_545  A
C304        F320   1.358       .  S
C305        C306   1.405       .  A
C306        F309   1.358       .  S
C307        C310   1.407       .  A
C307        C314   1.403       .  A
C310        C311   1.407       .  A
C310        F315   1.358   1_545  S
C311        C312   1.414       .  A
C311        F317   1.357       .  S
C312        C313   1.415       .  A
C313        C314   1.399       .  A
C313        F316   1.358       .  S
C314        F318   1.359       .  S
C321        C322   1.408       .  A
C321        C326   1.400       .  A
C321        F339   1.358       .  S
C322        C323   1.407       .  A
C322        C327   1.490       .  S
C323        C324   1.402       .  A
C323        F328   1.358       .  S
C324        C325   1.407       .  A
C324        F340   1.358       .  S
C325        C326   1.405       .  A
C326        F329   1.357       .  S
C327        C330   1.404       .  A
C327        C334   1.408   1_556  A
C330        C331   1.397       .  A
C330        F335   1.359       .  S
C331        C332   1.413   1_556  A
C331        F337   1.358       .  S
C332        C333   1.411       .  A
C333        C334   1.408       .  A
C333        F336   1.357       .  S
C334        F338   1.357       .  S
C341        C342   1.406       .  A
C341        C346   1.403       .  A
C341        F359   1.358       .  S
C342        C343   1.406       .  A
C342        C347   1.492       .  S
C343        C344   1.398       .  A
C343        F348   1.358       .  S
C344        C345   1.413       .  A
C344        F360   1.358       .  S
C345        C346   1.415       .  A
C346        F349   1.358   1_655  S
C347        C350   1.410       .  A
C347        C354   1.408       .  A
C350        C351   1.404       .  A
C350        F355   1.358       .  S
C351        C352   1.403       .  A
C351        F357   1.357       .  S
C352        C353   1.405       .  A
C353        C354   1.399       .  A
C353        F356   1.358       .  S
C354        F358   1.358       .  S
C361        C362   1.411       .  A
C361        C366   1.407       .  A
C361        F379   1.358       .  S
C362        C363   1.404       .  A
C362        C367   1.497       .  S
C363        C364   1.400       .  A
C363        F368   1.358       .  S
C364        C365   1.415       .  A
C364        F380   1.358       .  S
C365        C366   1.411       .  A
C366        F369   1.358       .  S
C367        C370   1.411       .  A
C367        C374   1.408       .  A
C370        C371   1.405       .  A
C370        F375   1.357       .  S
C371        C372   1.403       .  A
C371        F377   1.356       .  S
C372        C373   1.408       .  A
C373        C374   1.403       .  A
C373        F376   1.357       .  S
C374        F378   1.358       .  S
C381        C382   1.410   1_554  A
C381        C386   1.407       .  A
C381        F399   1.358       .  S
C382        C383   1.402       .  A
C382        C387   1.491       .  S
C383        C384   1.403       .  A
C383        F388   1.358       .  S
C384        C385   1.412   1_556  A
C384        F400   1.358       .  S
C385        C386   1.407       .  A
C386        F389   1.358       .  S
C387        C390   1.405       .  A
C387        C394   1.408       .  A
C390        C391   1.402       .  A
C390        F395   1.357       .  S
C391        C392   1.406       .  A
C391        F397   1.358       .  S
C392        C393   1.408       .  A
C393        C394   1.406       .  A
C393        F396   1.358   1_556  S
C394        F398   1.357       .  S
