geometry optimzed in LAMMPS
_audit_creation_date              2020-12-01 
_audit_creation_method            'lammps2cif' 
_symmetry_space_group_name_H-M    'P1' 
_symmetry_Int_Tables_number       1 
_symmetry_cell_setting            triclinic 
loop_ 
_symmetry_equiv_pos_as_xyz 
  x,y,z 
_cell_length_a                    43.69940711 
_cell_length_b                    43.56004743330087 
_cell_length_c                    43.3937548868728 
_cell_angle_alpha                 89.96123708692608 
_cell_angle_beta                  89.87273960436198 
_cell_angle_gamma                 89.98061433046581 
loop_ 
_atom_site_label 
_atom_site_type_symbol 
_atom_site_fract_x 
_atom_site_fract_y 
_atom_site_fract_z 
_atom_site_charge 
O1          O  0.41563738  0.99837299  0.19829966    -0.74200
O2          O  0.45320024  0.99756010  0.16203946    -0.53100
C3          C  0.42482912  0.99778781  0.17014056     0.79500
O4          O  0.50142400  0.08390635  0.30163746    -0.58800
O5          O  0.49974555  0.04640647  0.33817301    -0.51800
C6          C  0.50049500  0.07468621  0.32980286     0.71500
O7          O  0.50163464  0.08319843  0.19795258    -0.73400
O8          O  0.99852793  0.04716461  0.16229415    -0.53900
C9          C  0.50112252  0.07367365  0.16988623     0.77500
O10         O  0.41485207  0.99975517  0.30183198    -0.58500
O11         O  0.45138722  0.49799703  0.33861668    -0.51600
C12         C  0.42411239  0.99923379  0.32995417     0.74100
Zr13       Zr  0.43647602  0.99925435  0.25015153     2.54700
O14         O  0.39825472  0.03986804  0.24844819    -0.79100
O15         O  0.39758947  0.45794287  0.25101482    -0.92500
Zr16       Zr  0.50138077  0.06235439  0.24995907     2.64700
O17         O  0.46017596  0.10001457  0.24932047    -0.97500
O18         O  0.03904719  0.10245973  0.24849168    -0.79500
O19         O  0.46843544  0.03134616  0.21997197    -0.82900
O20         O  0.46811773  0.03166719  0.28000497    -2.17600
O21         O  0.99758491  0.41513145  0.30306335    -0.66300
O22         O  0.49953969  0.45179118  0.33913073    -0.50800
C23         C  0.99788477  0.42455859  0.33111427     0.72500
O24         O  0.08549970  0.49880786  0.19941467    -0.59200
O25         O  0.04660021  0.99947399  0.16196356    -0.51100
C26         C  0.07629937  0.49872262  0.17130483     0.74300
O27         O  0.08567590  0.50175260  0.30296874    -0.70600
O28         O  0.04803403  0.50040326  0.33915687    -0.49200
C29         C  0.07635745  0.50155947  0.33112184     0.75700
O30         O  0.99990475  0.41464716  0.19993090    -0.65900
O31         O  0.00028813  0.45207205  0.16332353    -0.53100
C32         C  0.00000879  0.42371981  0.17173166     0.74100
Zr33       Zr  0.99959649  0.43639877  0.25141416     2.77500
O34         O  0.03932755  0.39723122  0.25134459    -0.96600
O35         O  0.46026792  0.39685510  0.24935830    -0.77500
Zr36       Zr  0.06445154  0.49995137  0.25115984     2.70100
O37         O  0.10264285  0.45929700  0.25203984    -0.78700
O38         O  0.10191609  0.03878362  0.24921795    -0.97800
Zr39       Zr  0.99894600  0.99960720  0.19082536     2.21500
Zr40       Zr  0.49925358  0.49954081  0.31058154     2.11100
O41         O  0.03278911  0.46743038  0.28117367    -2.46500
O42         O  0.03268882  0.46740974  0.22132237    -0.78500
O43         O  0.46739870  0.46659689  0.28095929    -0.70700
O44         O  0.03158198  0.03195186  0.22038224    -2.31700
O45         O  0.46767108  0.46631798  0.22084562    -2.27900
O46         O  0.03177290  0.03186144  0.28020342    -0.72500
H47         H  0.45559229  0.04448712  0.29307814     0.79500
H48         H  0.04419964  0.04454227  0.20711456     0.80600
H49         H  0.04522258  0.45472825  0.29444410     0.82800
H50         H  0.45544373  0.45339446  0.20757598     0.80500
H51         H  0.05526141  0.09345291  0.23533309     0.43500
H52         H  0.09510603  0.05381496  0.26490482     0.42500
H53         H  0.09663197  0.44535582  0.23508846     0.42100
H54         H  0.04926643  0.39896133  0.27174944     0.40100
H55         H  0.44284951  0.40638003  0.26042216     0.43200
H56         H  0.40159809  0.44600016  0.23202768     0.38000
H57         H  0.40443537  0.05286164  0.23076562     0.44100
H58         H  0.44660089  0.09416556  0.26665096     0.40500
H59         H  0.02799423  0.37756866  0.25223159     0.45400
H60         H  0.37799052  0.46862140  0.24702594     0.44200
H61         H  0.46986004  0.11942106  0.25603136     0.44300
H62         H  0.12022487  0.02897162  0.25834805     0.44700
O63         O  0.50011167  0.19601900  0.08559112    -0.74200
O64         O  0.99904466  0.16196545  0.04868062    -0.53100
C65         C  0.50015241  0.16810023  0.07582846     0.79500
O66         O  0.41478070  0.30049468  0.99966668    -0.58800
O67         O  0.45231132  0.33666070  0.00128020    -0.51800
C68         C  0.42401762  0.32853969  0.00004170     0.71500
O69         O  0.41506365  0.19701102  0.00281510    -0.73400
O70         O  0.45261524  0.16091179  0.00016512    -0.53900
C71         C  0.42434980  0.16899332  0.00182581     0.77500
O72         O  0.50339918  0.29992716  0.08697401    -0.58500
O73         O  0.49994901  0.33622720  0.04935921    -0.51600
C74         C  0.50199932  0.32800057  0.07772197     0.74100
Zr75       Zr  0.50066779  0.24824342  0.06539387     2.54700
O76         O  0.46020158  0.24946581  0.10399929    -0.79100
O77         O  0.04172813  0.24543999  0.10272868    -0.92500
Zr78       Zr  0.43587755  0.24880089  0.00188327     2.64700
O79         O  0.39749542  0.24944786  0.04269610    -0.97500
O80         O  0.39895657  0.24826649  0.45827089    -0.79500
O81         O  0.46773304  0.21852555  0.03393017    -0.82900
O82         O  0.46754791  0.27838819  0.03465063    -2.17600
O83         O  0.08484736  0.30210415  0.50091357    -0.66300
O84         O  0.04633399  0.33786102  0.00316787    -0.50800
C85         C  0.07553769  0.33015484  0.50151056     0.72500
O86         O  0.00147939  0.19723709  0.41454610    -0.59200
O87         O  0.99979833  0.16158508  0.45292366    -0.51100
C88         C  0.00105267  0.16931504  0.42438616     0.74300
O89         O  0.99856543  0.30111923  0.41377752    -0.70600
O90         O  0.49998283  0.33681735  0.45310213    -0.49200
C91         C  0.99913721  0.32907469  0.42340292     0.75700
O92         O  0.08494074  0.19819986  0.00053480    -0.65900
O93         O  0.04756776  0.16178748  0.00106734    -0.53100
C94         C  0.07539648  0.17019178  0.49808963     0.74100
Zr95       Zr  0.06371492  0.25007323  0.00106709     2.77500
O96         O  0.10210934  0.25165352  0.45777175    -0.96600
O97         O  0.10482182  0.24777231  0.03874584    -0.77500
Zr98       Zr  0.99962018  0.24938599  0.43511452     2.70100
O99         O  0.04000525  0.24994791  0.39646267    -0.78700
O100        O  0.46410826  0.24638477  0.39406744    -0.97800
Zr101      Zr  0.99996561  0.19043319  0.00101264     2.21500
Zr102      Zr  0.49987073  0.30778214  0.00157772     2.11100
O103        O  0.03216521  0.27972986  0.46632800    -2.46500
O104        O  0.03231435  0.21981553  0.46675024    -0.78500
O105        O  0.03212513  0.27957484  0.03418859    -0.70700
O106        O  0.46835235  0.21933545  0.46669191    -2.31700
O107        O  0.03258053  0.21965536  0.03379077    -2.27900
O108        O  0.46847425  0.27864391  0.46706605    -0.72500
H109        H  0.45515386  0.29151044  0.04755945     0.79500
H110        H  0.45586258  0.20622174  0.45385671     0.80600
H111        H  0.04460526  0.29297265  0.45358471     0.82800
H112        H  0.04516250  0.20642759  0.04638915     0.80500
H113        H  0.40847354  0.26049085  0.44157583     0.43500
H114        H  0.44778157  0.26085258  0.40034369     0.42500
H115        H  0.05755064  0.23978903  0.40665586     0.42100
H116        H  0.09550421  0.26855654  0.44405077     0.40100
H117        H  0.09713938  0.23379270  0.05501172     0.43200
H118        H  0.03227863  0.25074550  0.12279070     0.38000
H119        H  0.44536605  0.23375546  0.09707072     0.44100
H120        H  0.40038185  0.26934379  0.05330793     0.40500
H121        H  0.12089279  0.25949429  0.46776890     0.45400
H122        H  0.05521225  0.26305069  0.09785119     0.44200
H123        H  0.37776955  0.25165988  0.03171661     0.44300
H124        H  0.47419310  0.25646767  0.37629311     0.44700
O125        O  0.30159569  0.08571024  0.00342094    -0.74200
O126        O  0.33701807  0.04742894  0.00131040    -0.53100
C127        C  0.32937666  0.07591311  0.00277323     0.79500
O128        O  0.19885506  0.49856159  0.08662852    -0.58800
O129        O  0.16251306  0.00013782  0.04800282    -0.51800
C130        C  0.17033804  0.99809229  0.07645864     0.71500
O131        O  0.30253937  0.49959578  0.08592919    -0.73400
O132        O  0.33805589  0.49796172  0.04747060    -0.53900
C133        C  0.32957657  0.99833374  0.07610080     0.77500
O134        O  0.19849078  0.08578514  0.00167394    -0.58500
O135        O  0.16249508  0.04804070  0.00087242    -0.51600
C136        C  0.17054273  0.07640399  0.00120646     0.74100
Zr137      Zr  0.25011776  0.06446027  0.00184202     2.54700
O138        O  0.24949493  0.10347756  0.04197077    -0.79100
O139        O  0.25092770  0.09951352  0.45422579    -0.92500
Zr140      Zr  0.25057150  0.50010562  0.06527010     2.64700
O141        O  0.24977176  0.03693588  0.10482534    -0.97500
O142        O  0.25080071  0.46096348  0.10531291    -0.79500
O143        O  0.27974065  0.03167559  0.03374809    -0.82900
O144        O  0.22036818  0.03217356  0.03402178    -2.17600
O145        O  0.19891818  0.99823097  0.41367338    -0.66300
O146        O  0.16316879  0.99902002  0.45182861    -0.50800
C147        C  0.17082115  0.49979171  0.42555465     0.72500
O148        O  0.30057158  0.41207820  0.00002263    -0.59200
O149        O  0.33655717  0.44989192  0.00076500    -0.51100
C150        C  0.32942152  0.42269985  0.50029338     0.74300
O151        O  0.19709317  0.41396844  0.00598871    -0.70600
O152        O  0.16189467  0.45248962  0.00357823    -0.49200
C153        C  0.17061581  0.42408020  0.50489090     0.75700
O154        O  0.30215699  0.99758612  0.41449184    -0.65900
O155        O  0.33765134  0.49879796  0.45274535    -0.53100
C156        C  0.32956811  0.49680740  0.42434313     0.74100
Zr157      Zr  0.25039935  0.99805523  0.43545534     2.77500
O158        O  0.25007699  0.45337365  0.40151983    -0.96600
O159        O  0.25003144  0.03686751  0.39506128    -0.77500
Zr160      Zr  0.24919401  0.43423184  0.00232437     2.70100
O161        O  0.24706322  0.39387489  0.46692017    -0.78700
O162        O  0.25150596  0.39632134  0.04355565    -0.97800
Zr163      Zr  0.30884448  0.49798556  0.00021308     2.21500
Zr164      Zr  0.19111044  0.00058781  0.00025816     2.11100
O165        O  0.22059595  0.46577433  0.47010434    -2.46500
O166        O  0.28024264  0.46541239  0.46971021    -0.78500
O167        O  0.22056694  0.03185094  0.46602177    -0.70700
O168        O  0.27956304  0.46629257  0.03401189    -2.31700
O169        O  0.28009073  0.03156416  0.46633521    -2.27900
O170        O  0.22017579  0.46723527  0.03447601    -0.72500
H171        H  0.20730573  0.04449147  0.04704144     0.79500
H172        H  0.29266928  0.45373024  0.04674277     0.80600
H173        H  0.20724103  0.45279890  0.45807865     0.82800
H174        H  0.29344341  0.04380699  0.45350843     0.80500
H175        H  0.25688650  0.44189532  0.09451297     0.43500
H176        H  0.23328120  0.40051374  0.05648465     0.42500
H177        H  0.25738770  0.40195547  0.44827541     0.42100
H178        H  0.23020727  0.44306097  0.40512812     0.40100
H179        H  0.26521942  0.05232379  0.40177421     0.43200
H180        H  0.27282638  0.10218296  0.44899023     0.38000
H181        H  0.25385050  0.09207671  0.06120688     0.44100
H182        H  0.23204681  0.05027263  0.10006985     0.40500
H183        H  0.24807771  0.46275196  0.38082758     0.45400
H184        H  0.24463385  0.11953588  0.46297721     0.44200
H185        H  0.24366021  0.02573196  0.12371578     0.44300
H186        H  0.24692169  0.37654964  0.03331158     0.44700
C187        C  0.34754594  0.36836622  0.98796815     0.24700
C188        C  0.35394199  0.39892040  0.49896194    -0.23400
C189        C  0.38281529  0.40493493  0.01043637     0.19600
C190        C  0.40592059  0.38264632  0.01029031     0.24600
C191        C  0.40007892  0.35284451  0.99914127    -0.23400
C192        C  0.37060846  0.34613794  0.98775266     0.19500
F193        F  0.36399791  0.31806116  0.97591769    -0.13300
F194        F  0.31972349  0.36084673  0.97630883    -0.15700
F195        F  0.43371010  0.39011204  0.02204374    -0.15700
F196        F  0.39227176  0.43488932  0.51564044    -0.13300
C197        C  0.34817242  0.12911990  0.01433451     0.24700
C198        C  0.35414310  0.09923481  0.00350008    -0.23400
C199        C  0.38386767  0.09215468  0.99300359     0.19600
C200        C  0.40677379  0.11459570  0.99257753     0.24600
C201        C  0.40055029  0.14466673  0.00280026    -0.23400
C202        C  0.37100837  0.15146332  0.01401059     0.19500
F203        F  0.36412533  0.17969877  0.02534585    -0.13300
F204        F  0.32030892  0.13680714  0.02592575    -0.15700
F205        F  0.43484162  0.10688312  0.98153524    -0.15700
F206        F  0.39077518  0.06363471  0.98251295    -0.13300
C207        C  0.11539010  0.40814893  0.49764153     0.24700
C208        C  0.14584451  0.40047409  0.50525884    -0.23400
C209        C  0.15258725  0.36960128  0.51230045     0.19600
C210        C  0.12981874  0.34711404  0.51138070     0.24600
C211        C  0.09943267  0.35462842  0.50333418    -0.23400
C212        C  0.09253816  0.38557536  0.49672016     0.19500
F213        F  0.06464221  0.39139233  0.98311866    -0.13300
F214        F  0.10870978  0.43465479  0.98252051    -0.15700
F215        F  0.13786300  0.31783367  0.51846103    -0.15700
F216        F  0.18139636  0.36079107  0.51999582    -0.13300
C217        C  0.11491213  0.09203264  0.49358197     0.24700
C218        C  0.14606815  0.10006376  0.00094194    -0.23400
C219        C  0.15238827  0.12997292  0.99037944     0.19600
C220        C  0.12964521  0.15247689  0.99029056     0.24600
C221        C  0.09935302  0.14576408  0.49824851    -0.23400
C222        C  0.09199044  0.11458436  0.49349449     0.19500
F223        F  0.06268410  0.10574364  0.48813977    -0.13300
F224        F  0.10660096  0.06240483  0.48867078    -0.15700
F225        F  0.13700035  0.18085631  0.97965292    -0.15700
F226        F  0.18056953  0.13753695  0.97953318    -0.13300
C227        C  0.34833585  0.98668766  0.37059296     0.24700
C228        C  0.35392937  0.49605298  0.40072806    -0.23400
C229        C  0.38130616  0.51244914  0.40503950     0.19600
C230        C  0.40400558  0.51216953  0.38235297     0.24600
C231        C  0.40037333  0.99856809  0.35436783    -0.23400
C232        C  0.37086594  0.98734861  0.34782867     0.19500
F233        F  0.36365295  0.97665835  0.31936650    -0.13300
F234        F  0.32041754  0.97519029  0.36319633    -0.15700
F235        F  0.42989107  0.52863168  0.38703471    -0.15700
F236        F  0.38579538  0.52953533  0.43080491    -0.13300
C237        C  0.11526723  0.49647810  0.40959122     0.24700
C238        C  0.14629424  0.50100862  0.40175373    -0.23400
C239        C  0.15304614  0.99095287  0.36849168     0.19600
C240        C  0.12996709  0.99048810  0.34626951     0.24600
C241        C  0.10010420  0.50247954  0.35573359    -0.23400
C242        C  0.09249351  0.49732083  0.38693417     0.19500
F243        F  0.06302677  0.49263503  0.39573177    -0.13300
F244        F  0.10679700  0.49041510  0.43909781    -0.15700
F245        F  0.13802465  0.98367926  0.31680267    -0.15700
F246        F  0.18213631  0.98488145  0.35921454    -0.13300
C247        C  0.12992523  0.00366258  0.15379958     0.24700
C248        C  0.10014939  0.49807174  0.14694586    -0.23400
C249        C  0.09287018  0.50460469  0.11602113     0.19600
C250        C  0.11564530  0.50461159  0.09336765     0.24600
C251        C  0.14570373  0.99808001  0.10019691    -0.23400
C252        C  0.15285395  0.00309152  0.13143471     0.19500
F253        F  0.18212169  0.00802113  0.14064995    -0.13300
F254        F  0.13832579  0.00947704  0.18334532    -0.15700
F255        F  0.10748508  0.51165785  0.06403725    -0.15700
F256        F  0.06382539  0.51181787  0.10760146    -0.13300
C257        C  0.36945208  0.99725998  0.15401581     0.24700
C258        C  0.40074041  0.99739991  0.14577907    -0.23400
C259        C  0.40837785  0.99742933  0.11418399     0.19600
C260        C  0.38548117  0.99754154  0.09160616     0.24600
C261        C  0.35420658  0.99788267  0.09993037    -0.23400
C262        C  0.34666786  0.99775473  0.13156118     0.19500
F263        F  0.31708887  0.99828461  0.14123111    -0.13300
F264        F  0.36043611  0.99671401  0.18399077    -0.15700
F265        F  0.39421665  0.99742705  0.06156106    -0.15700
F266        F  0.43805453  0.99745512  0.10485853    -0.13300
C267        C  0.50985117  0.11451399  0.40695700     0.24700
C268        C  0.00213086  0.14451354  0.40104989    -0.23400
C269        C  0.01546597  0.15003551  0.37203184     0.19000
C270        C  0.01541413  0.12737829  0.34934130     0.24600
C271        C  0.50021025  0.09849924  0.35408820    -0.23400
C272        C  0.50971767  0.09169135  0.38432501     0.19500
F273        F  0.51979498  0.06316966  0.39190420    -0.13300
F274        F  0.51951450  0.10700922  0.43571627    -0.15700
F275        F  0.02798113  0.13409568  0.32149106    -0.15700
F276        F  0.02906872  0.17733829  0.36561790    -0.13300
C277        C  0.50877239  0.34678478  0.37062234     0.24700
C278        C  0.99849069  0.35369542  0.40007766    -0.23400
C279        C  0.01182267  0.38246947  0.40621175     0.19600
C280        C  0.01119257  0.40573531  0.38407323     0.24600
C281        C  0.99715911  0.40072385  0.35536953    -0.23400
C282        C  0.50840992  0.36945275  0.34802872     0.19500
F283        F  0.51739008  0.36166200  0.31908064    -0.13300
F284        F  0.51860241  0.31830476  0.36256022    -0.15700
F285        F  0.02530179  0.43275777  0.39040970    -0.15700
F286        F  0.02631066  0.38788920  0.43331343    -0.13300
C287        C  0.51273678  0.40515497  0.11727841     0.24700
C288        C  0.99967500  0.39954091  0.14758301    -0.23400
C289        C  0.99099166  0.36922266  0.15505953     0.19600
C290        C  0.99110047  0.34625085  0.13268636     0.24600
C291        C  0.50234817  0.35239649  0.10156642    -0.23400
C292        C  0.51265385  0.38227280  0.09461983     0.19500
F293        F  0.52353417  0.38922070  0.06611846    -0.13300
F294        F  0.52368612  0.43335619  0.10986113    -0.15700
F295        F  0.98228358  0.31753129  0.14110502    -0.15700
F296        F  0.98199576  0.36158122  0.18405309    -0.13300
C297        C  0.48900423  0.14953094  0.12924553     0.24700
C298        C  0.50020811  0.14346801  0.09942055    -0.23400
C299        C  0.00864724  0.11596006  0.09407070     0.19600
C300        C  0.00868917  0.09313100  0.11662663     0.24600
C301        C  0.50080156  0.09736943  0.14538587    -0.23400
C302        C  0.48937029  0.12687343  0.15187706     0.19500
F303        F  0.47789858  0.13386825  0.18012671    -0.13300
F304        F  0.47710498  0.17737979  0.13662597    -0.15700
F305        F  0.02139542  0.06551708  0.10971388    -0.15700
F306        F  0.02112983  0.10954616  0.06616633    -0.13300
O307        O  0.41501263  0.00266837  0.69838498    -0.74200
O308        O  0.45271462  0.00073135  0.66220898    -0.53100
C309        C  0.42440528  0.00226073  0.67026867     0.79500
O310        O  0.49985781  0.08668928  0.80108894    -0.58800
O311        O  0.49947970  0.04885596  0.83734830    -0.51800
C312        C  0.49954793  0.07722044  0.82912668     0.71500
O313        O  0.49883494  0.08579493  0.69777117    -0.73400
O314        O  0.99955162  0.04900037  0.66207633    -0.53900
C315        C  0.49928977  0.07602254  0.66979901     0.77500
O316        O  0.41479117  0.99922456  0.80204171    -0.58500
O317        O  0.45273204  0.49754448  0.83864780    -0.51600
C318        C  0.42400398  0.99910407  0.83017817     0.74100
Zr319      Zr  0.43598237  0.00043614  0.75019627     2.54700
O320        O  0.39765602  0.04095709  0.75098944    -0.79100
O321        O  0.40118293  0.45458009  0.75151515    -0.92500
Zr322      Zr  0.49919618  0.06502911  0.74974124     2.64700
O323        O  0.45801140  0.10274435  0.74952349    -0.97500
O324        O  0.03076813  0.10807151  0.74917318    -0.79500
O325        O  0.46725187  0.03296203  0.71989280    -0.82900
O326        O  0.46701270  0.03334653  0.78012577    -2.17600
O327        O  0.00048515  0.41417951  0.80261581    -0.66300
O328        O  0.49976356  0.45258458  0.83976970    -0.50800
C329        C  0.99978604  0.42356933  0.83074927     0.72500
O330        O  0.08555467  0.50022681  0.69967202    -0.59200
O331        O  0.04771596  0.00293788  0.66145016    -0.51100
C332        C  0.07654714  0.49988058  0.67147274     0.74300
O333        O  0.08414712  0.50358462  0.80341406    -0.70600
O334        O  0.04650816  0.50073425  0.83957784    -0.49200
C335        C  0.07480856  0.50260401  0.83156728     0.75700
O336        O  0.00325452  0.41439771  0.69856992    -0.65900
O337        O  0.00234132  0.45232910  0.66252150    -0.53100
C338        C  0.00312882  0.42392882  0.67047932     0.74100
Zr339      Zr  0.00268403  0.43535794  0.75058568     2.77500
O340        O  0.04452022  0.39843777  0.75039833    -0.96600
O341        O  0.46686914  0.39343251  0.75067879    -0.77500
Zr342      Zr  0.06368081  0.50280053  0.75116549     2.70100
O343        O  0.10747510  0.46840390  0.75325715    -0.78700
O344        O  0.09779759  0.04985640  0.74866702    -0.97800
Zr345      Zr  0.00030849  0.00143122  0.69050740     2.21500
Zr346      Zr  0.50039496  0.49975273  0.81032147     2.11100
O347        O  0.03380615  0.46816558  0.78069496    -2.46500
O348        O  0.03412695  0.46852061  0.72092195    -0.78500
O349        O  0.46956326  0.46592680  0.78065247    -0.70700
O350        O  0.03066884  0.03599177  0.72020209    -2.31700
O351        O  0.46987707  0.46542352  0.72094187    -2.27900
O352        O  0.03019839  0.03536907  0.78010087    -0.72500
H353        H  0.45428500  0.04582876  0.79334510     0.79500
H354        H  0.04253486  0.04946529  0.70710057     0.80600
H355        H  0.04679454  0.45605171  0.79396358     0.82800
H356        H  0.45774572  0.45246401  0.70762820     0.80500
H357        H  0.05136077  0.09863423  0.74889738     0.43500
H358        H  0.09119414  0.06248936  0.76643677     0.42500
H359        H  0.09842499  0.44758639  0.75263166     0.42100
H360        H  0.05528932  0.40180483  0.77015436     0.40100
H361        H  0.44755984  0.40286663  0.75799808     0.43200
H362        H  0.40316869  0.44475090  0.73105274     0.38000
H363        H  0.40610334  0.05707151  0.73729816     0.44100
H364        H  0.44822239  0.10095712  0.77004562     0.40500
H365        H  0.03436049  0.37826802  0.75289102     0.45400
H366        H  0.38076994  0.46444956  0.75119717     0.44200
H367        H  0.46858996  0.12283802  0.74998001     0.44300
H368        H  0.11806867  0.04176378  0.75478887     0.44700
O369        O  0.49790976  0.19713841  0.58524767    -0.74200
O370        O  0.99889679  0.16332378  0.54792355    -0.53100
C371        C  0.49903219  0.16926856  0.57558399     0.79500
O372        O  0.41461590  0.30025954  0.49812923    -0.58800
O373        O  0.45229293  0.33623536  0.49990889    -0.51800
C374        C  0.42393001  0.32828789  0.49867622     0.71500
O375        O  0.41524375  0.19715354  0.50075187    -0.73400
O376        O  0.45306730  0.16118113  0.49914535    -0.53900
C377        C  0.42472828  0.16916142  0.50020235     0.77500
O378        O  0.50210906  0.30037473  0.58616665    -0.58500
O379        O  0.50025620  0.33641468  0.54833998    -0.51600
C380        C  0.50150647  0.32843902  0.57684062     0.74100
Zr381      Zr  0.50006629  0.24880158  0.56445736     2.54700
O382        O  0.45978171  0.24926279  0.60335866    -0.79100
O383        O  0.04043466  0.25018788  0.60234098    -0.92500
Zr384      Zr  0.43653059  0.24883528  0.49953536     2.64700
O385        O  0.39770950  0.24836033  0.53983946    -0.97500
O386        O  0.39587448  0.24754281  0.96301562    -0.79500
O387        O  0.46790640  0.21896803  0.53234382    -0.82900
O388        O  0.46734002  0.27868234  0.53299450    -2.17600
O389        O  0.08426932  0.30212202  0.00641736    -0.66300
O390        O  0.04716388  0.33813759  0.50072715    -0.50800
C391        C  0.07464845  0.33011997  0.00579753     0.72500
O392        O  0.99915140  0.19816403  0.91553236    -0.59200
O393        O  0.00013162  0.16182091  0.95326156    -0.51100
C394        C  0.99934608  0.17006513  0.92482121     0.74300
O395        O  0.99826246  0.30182755  0.91629633    -0.70600
O396        O  0.49964549  0.33740880  0.95459605    -0.49200
C397        C  0.99784995  0.32981368  0.92577636     0.75700
O398        O  0.08465260  0.19824126  0.49707446    -0.65900
O399        O  0.04706871  0.16219127  0.49937415    -0.53100
C400        C  0.07583102  0.17006898  0.00073306     0.74100
Zr401      Zr  0.06398405  0.25017708  0.49885043     2.77500
O402        O  0.10032764  0.25177522  0.95876774    -0.96600
O403        O  0.10321438  0.24967374  0.53861385    -0.77500
Zr404      Zr  0.99925041  0.24989059  0.93705473     2.70100
O405        O  0.03898105  0.25114631  0.89772296    -0.78700
O406        O  0.45834846  0.24819029  0.89838116    -0.97800
Zr407      Zr  0.99958225  0.19118664  0.49989652     2.21500
Zr408      Zr  0.50027518  0.30785238  0.50049159     2.11100
O409        O  0.03188975  0.27989090  0.96856822    -2.46500
O410        O  0.03232062  0.22005142  0.96825692    -0.78500
O411        O  0.03269652  0.28014713  0.53183990    -0.70700
O412        O  0.46689476  0.21953463  0.96807631    -2.31700
O413        O  0.03256826  0.22060103  0.53216198    -2.27900
O414        O  0.46694077  0.27900662  0.96888175    -0.72500
H415        H  0.45470141  0.29188546  0.54557517     0.79500
H416        H  0.45413931  0.20653043  0.95539443     0.80600
H417        H  0.04429766  0.29335510  0.95602433     0.82800
H418        H  0.04516642  0.20741248  0.54478106     0.80500
H419        H  0.40704466  0.24758229  0.94314951     0.43500
H420        H  0.44753211  0.26803341  0.90068516     0.42500
H421        H  0.05681594  0.24114068  0.90754722     0.42100
H422        H  0.09870521  0.27284339  0.95036984     0.40100
H423        H  0.12188254  0.24223530  0.52802152     0.43200
H424        H  0.05332155  0.23225442  0.59700869     0.38000
H425        H  0.44406523  0.26345194  0.59519437     0.44100
H426        H  0.40092997  0.26764875  0.55143230     0.40500
H427        H  0.12056282  0.25122935  0.96897943     0.45400
H428        H  0.03000129  0.24421051  0.62171261     0.44200
H429        H  0.37817973  0.25154725  0.52875900     0.44300
H430        H  0.46896720  0.24974674  0.87825921     0.44700
O431        O  0.30218657  0.08523225  0.50053489    -0.74200
O432        O  0.33780849  0.04701329  0.49951737    -0.53100
C433        C  0.33006825  0.07550402  0.50032348     0.79500
O434        O  0.19994822  0.50242627  0.58808130    -0.58800
O435        O  0.16295365  0.00164129  0.54771229    -0.51800
C436        C  0.17081262  0.00192381  0.57626059     0.71500
O437        O  0.30330570  0.50486427  0.58632716    -0.73400
O438        O  0.33880105  0.50191118  0.54804019    -0.53900
C439        C  0.32982922  0.00280031  0.57616513     0.77500
O440        O  0.19855006  0.08573672  0.49725248    -0.58500
O441        O  0.16275450  0.04785660  0.49843957    -0.51600
C442        C  0.17059150  0.07631790  0.49781590     0.74100
Zr443      Zr  0.25028289  0.06435581  0.49791461     2.54700
O444        O  0.24861673  0.10588692  0.53540433    -0.79100
O445        O  0.24953094  0.10344263  0.96163851    -0.92500
Zr446      Zr  0.25129901  0.50253008  0.56595580     2.64700
O447        O  0.24937789  0.04352072  0.60205730    -0.97500
O448        O  0.25189966  0.46459246  0.60719166    -0.79500
O449        O  0.27979942  0.03351150  0.53177235    -0.82900
O450        O  0.22058157  0.03369651  0.53173408    -2.17600
O451        O  0.19756370  0.00423729  0.91435740    -0.66300
O452        O  0.16204957  0.00287371  0.95291349    -0.50800
C453        C  0.17020518  0.50116946  0.92489400     0.72500
O454        O  0.30148097  0.41333129  0.50116584    -0.59200
O455        O  0.33742420  0.45114823  0.50052609    -0.51100
C456        C  0.32853737  0.42150516  0.00011569     0.74300
O457        O  0.19852298  0.41454183  0.50574280    -0.70600
O458        O  0.16289837  0.45254522  0.50334004    -0.49200
C459        C  0.16932030  0.42398027  0.00574020     0.75700
O460        O  0.30146644  0.00128755  0.91451854    -0.65900
O461        O  0.33709381  0.49587071  0.95229658    -0.53100
C462        C  0.32917547  0.49585937  0.92379117     0.74100
Zr463      Zr  0.24959771  0.00216854  0.93534339     2.77500
O464        O  0.24945102  0.45513508  0.89924464    -0.96600
O465        O  0.25083458  0.04370094  0.89780684    -0.77500
Zr466      Zr  0.25034301  0.43550110  0.50413694     2.70100
O467        O  0.24700822  0.39459938  0.96294120    -0.78700
O468        O  0.25291027  0.40028513  0.54757804    -0.97800
Zr469      Zr  0.30953970  0.49942088  0.50083641     2.21500
Zr470      Zr  0.19143558  0.00019826  0.49978903     2.11100
O471        O  0.21960319  0.46545778  0.96886237    -2.46500
O472        O  0.27917419  0.46480872  0.96855874    -0.78500
O473        O  0.22022557  0.03403694  0.96826361    -0.70700
O474        O  0.28060894  0.46819234  0.53540099    -2.31700
O475        O  0.27970218  0.03363424  0.96800860    -2.27900
O476        O  0.22112316  0.46872889  0.53578584    -0.72500
H477        H  0.20737946  0.04665365  0.54395549     0.79500
H478        H  0.29390761  0.45602288  0.54831682     0.80600
H479        H  0.20604776  0.45282177  0.95669290     0.82800
H480        H  0.29300392  0.04646963  0.95571291     0.80500
H481        H  0.27088200  0.45264368  0.60378503     0.43500
H482        H  0.23637114  0.40715108  0.56160300     0.42500
H483        H  0.25931320  0.40295082  0.94568221     0.42100
H484        H  0.22869117  0.44617275  0.90079039     0.40100
H485        H  0.24306579  0.06178745  0.90920493     0.43200
H486        H  0.26997111  0.10224262  0.95183484     0.38000
H487        H  0.23982244  0.09643456  0.55419468     0.44100
H488        H  0.22927659  0.05364388  0.59930592     0.40500
H489        H  0.24983045  0.46540527  0.87888301     0.45400
H490        H  0.24967533  0.12317121  0.97295884     0.44200
H491        H  0.24780204  0.03307558  0.62227264     0.44300
H492        H  0.24558119  0.38046950  0.53922279     0.44700
C493        C  0.34704947  0.36857807  0.49006185     0.24700
C494        C  0.35324051  0.39801911  0.99948952    -0.23400
C495        C  0.38443060  0.40606010  0.50677787     0.19600
C496        C  0.40718240  0.38336865  0.50638206     0.24600
C497        C  0.40013128  0.35288238  0.49805014    -0.23400
C498        C  0.36974958  0.34598323  0.48953316     0.19500
F499        F  0.36175662  0.31731742  0.48026721    -0.13300
F500        F  0.31828849  0.36055540  0.48141745    -0.15700
F501        F  0.43599073  0.39128548  0.51491838    -0.15700
F502        F  0.38929134  0.43307123  0.02219877    -0.13300
C503        C  0.34934245  0.12809572  0.51387168     0.24700
C504        C  0.35484028  0.09893960  0.50100509    -0.23400
C505        C  0.38405593  0.09275123  0.48857698     0.19600
C506        C  0.40678013  0.11546108  0.48813159     0.24600
C507        C  0.40111030  0.14463747  0.50091639    -0.23400
C508        C  0.37226119  0.15042407  0.51422758     0.19500
F509        F  0.36625207  0.17762694  0.52825675    -0.13300
F510        F  0.32185785  0.13500693  0.52676815    -0.15700
F511        F  0.43398819  0.10910336  0.47433729    -0.15700
F512        F  0.39049431  0.06499892  0.47601334    -0.13300
C513        C  0.11500706  0.40709688  0.99568312     0.24700
C514        C  0.14429370  0.40085308  0.00771480    -0.23400
C515        C  0.14971545  0.37179583  0.02089735     0.19600
C516        C  0.12700708  0.34916862  0.02080241     0.24600
C517        C  0.09802556  0.35499659  0.00780796    -0.23400
C518        C  0.09214518  0.38453728  0.99586134     0.19500
F519        F  0.06385443  0.39407663  0.48833868    -0.13300
F520        F  0.10768523  0.43737121  0.48998185    -0.15700
F521        F  0.13355394  0.32150153  0.03362874    -0.15700
F522        F  0.17706394  0.36514246  0.03412506    -0.13300
C523        C  0.11625025  0.09324158  0.01133427     0.24700
C524        C  0.14589624  0.10003074  0.49815298    -0.23400
C525        C  0.15306866  0.13116824  0.50330456     0.19600
C526        C  0.13024891  0.15356122  0.50341124     0.24600
C527        C  0.09979101  0.14576738  0.00063498    -0.23400
C528        C  0.09343873  0.11583391  0.01124320     0.19500
F529        F  0.06540357  0.10853255  0.02251063    -0.13300
F530        F  0.10924602  0.06493866  0.02246306    -0.15700
F531        F  0.13875275  0.18303081  0.50891227    -0.15700
F532        F  0.18228438  0.14032900  0.50861998    -0.13300
C533        C  0.34711100  0.99012694  0.87004144     0.24700
C534        C  0.35384583  0.49530961  0.90009095    -0.23400
C535        C  0.38454132  0.50145119  0.90805945     0.19600
C536        C  0.40752260  0.50153964  0.88558895     0.24600
C537        C  0.40009524  0.99869097  0.85456801    -0.23400
C538        C  0.36979801  0.99009198  0.84741618     0.19500
F539        F  0.36179731  0.98160461  0.81842172    -0.13300
F540        F  0.31851610  0.98086013  0.86209338    -0.15700
F541        F  0.43656849  0.50817791  0.89441756    -0.15700
F542        F  0.39251964  0.50792280  0.93757420    -0.13300
C543        C  0.11520815  0.49356615  0.90888436     0.24700
C544        C  0.14532322  0.50271682  0.90154162    -0.23400
C545        C  0.14976984  0.02093456  0.87272425     0.19600
C546        C  0.12707605  0.02119444  0.85005231     0.24600
C547        C  0.09860671  0.50352668  0.85610028    -0.23400
C548        C  0.09219027  0.49387151  0.88645693     0.19500
F549        F  0.06385677  0.48382409  0.89442356    -0.13300
F550        F  0.10805020  0.48335967  0.93757023    -0.15700
F551        F  0.13320576  0.03532075  0.82283080    -0.15700
F552        F  0.17661787  0.03553969  0.86690754    -0.13300
C553        C  0.12815534  0.98791067  0.65091237     0.24700
C554        C  0.10067081  0.49953312  0.64733057    -0.23400
C555        C  0.09486183  0.51092669  0.61752908     0.19600
C556        C  0.11803848  0.51145732  0.59524906     0.24600
C557        C  0.14628006  0.00198563  0.59977324    -0.23400
C558        C  0.15117286  0.98805417  0.62860743     0.19500
F559        F  0.17822726  0.97423047  0.63528018    -0.13300
F560        F  0.13369430  0.97359521  0.67814182    -0.15700
F561        F  0.11173197  0.52350523  0.56709195    -0.15700
F562        F  0.06694780  0.52228572  0.61002775    -0.13300
C563        C  0.37048231  0.01239254  0.65289466     0.24700
C564        C  0.40071410  0.00352191  0.64572482    -0.23400
C565        C  0.40766407  0.99533998  0.61507909     0.19600
C566        C  0.38486099  0.99533053  0.59245868     0.24600
C567        C  0.35446911  0.00358843  0.59983384    -0.23400
C568        C  0.34771315  0.01215873  0.63041194     0.19500
F569        F  0.31893290  0.02041261  0.63888834    -0.13300
F570        F  0.36267996  0.02164394  0.68174626    -0.15700
F571        F  0.39254945  0.98622473  0.56355375    -0.15700
F572        F  0.43638943  0.98654730  0.60694975    -0.13300
C573        C  0.50862865  0.11635559  0.90638108     0.24700
C574        C  0.99812478  0.14572843  0.90091193    -0.23400
C575        C  0.98683001  0.15249959  0.87127057     0.19000
C576        C  0.98572012  0.12988563  0.84855664     0.24600
C577        C  0.49905641  0.10084823  0.85348292    -0.23400
C578        C  0.50903156  0.09391883  0.88349106     0.19500
F579        F  0.51983991  0.06558024  0.89068863    -0.13300
F580        F  0.51818470  0.10858533  0.93505785    -0.15700
F581        F  0.97377338  0.13737288  0.82066844    -0.15700
F582        F  0.97617865  0.18094707  0.86422230    -0.13300
C583        C  0.48634406  0.34857534  0.87296387     0.24700
C584        C  0.99739348  0.35426243  0.90191693    -0.23400
C585        C  0.00684188  0.38441284  0.90878703     0.19600
C586        C  0.00753668  0.40693880  0.88581245     0.24600
C587        C  0.99867474  0.39993612  0.85539614    -0.23400
C588        C  0.48665848  0.37129698  0.85033846     0.19500
F589        F  0.47458434  0.36458135  0.82234598    -0.13300
F590        F  0.47424479  0.32078580  0.86574979    -0.15700
F591        F  0.01806521  0.43529181  0.89324838    -0.15700
F592        F  0.01658744  0.39199548  0.93746902    -0.13300
C593        C  0.50430362  0.40733957  0.61500267     0.24700
C594        C  0.00364386  0.40041767  0.64573526    -0.23400
C595        C  0.01123872  0.36975527  0.65262175     0.19600
C596        C  0.01081684  0.34734220  0.62974645     0.24600
C597        C  0.50218693  0.35308006  0.60069896    -0.23400
C598        C  0.50383476  0.38439395  0.59240032     0.19500
F599        F  0.50498681  0.39309417  0.56236240    -0.13300
F600        F  0.50589154  0.43707410  0.60569088    -0.15700
F601        F  0.01870314  0.31826655  0.63780716    -0.15700
F602        F  0.01953501  0.36121264  0.68153675    -0.13300
C603        C  0.51299702  0.15069906  0.62797302     0.24700
C604        C  0.49942144  0.14497821  0.59918720    -0.23400
C605        C  0.99496241  0.11607101  0.59214173     0.19600
C606        C  0.99389345  0.09336712  0.61480971     0.24600
C607        C  0.49961290  0.09938981  0.64522431    -0.23400
C608        C  0.51333874  0.12808234  0.65061582     0.19500
F609        F  0.52756103  0.13422344  0.67772417    -0.13300
F610        F  0.52655384  0.17806545  0.63412086    -0.15700
F611        F  0.99001728  0.06379833  0.60577012    -0.15700
F612        F  0.99265331  0.10727539  0.56222048    -0.13300
O613        O  0.41507999  0.49825798  0.19829805    -0.74200
O614        O  0.45298540  0.49792277  0.16223734    -0.53100
C615        C  0.42462898  0.49776875  0.17018236     0.79500
O616        O  0.50032866  0.58455894  0.30325237    -0.58800
O617        O  0.49920172  0.54696403  0.33970176    -0.51800
C618        C  0.50009252  0.57530617  0.33141303     0.71500
O619        O  0.49710185  0.58516776  0.19927763    -0.73400
O620        O  0.99928786  0.54798136  0.16299939    -0.53900
C621        C  0.49647707  0.57560498  0.17118596     0.77500
O622        O  0.41379348  0.49645930  0.30221757    -0.58500
O623        O  0.45236591  0.99898445  0.33818210    -0.51600
C624        C  0.42318480  0.49669163  0.33031947     0.74100
Zr625      Zr  0.43566682  0.49862413  0.25058236     2.54700
O626        O  0.39691435  0.53865944  0.24919310    -0.79100
O627        O  0.39770078  0.95922171  0.25219437    -0.92500
Zr628      Zr  0.49854805  0.56374856  0.25124164     2.64700
O629        O  0.45781798  0.60192939  0.25336986    -0.97500
O630        O  0.03992564  0.60476489  0.25023631    -0.79500
O631        O  0.46679783  0.53180863  0.22083594    -0.82900
O632        O  0.46623230  0.53172318  0.28110230    -2.17600
O633        O  0.99622051  0.91381120  0.30127572    -0.66300
O634        O  0.49766013  0.95147057  0.33850141    -0.50800
C635        C  0.99574819  0.92337352  0.32931932     0.72500
O636        O  0.08399627  0.99815143  0.19828194    -0.59200
O637        O  0.04805468  0.49928175  0.16310624    -0.51100
C638        C  0.07489130  0.99881838  0.17013095     0.74300
O639        O  0.08419458  0.99851104  0.30183637    -0.70600
O640        O  0.04668365  0.99764201  0.33820689    -0.49200
C641        C  0.07505103  0.99764419  0.33001791     0.75700
O642        O  0.99775695  0.91379481  0.19746193    -0.65900
O643        O  0.99866901  0.95228287  0.16172572    -0.53100
C644        C  0.99790036  0.92381602  0.16951551     0.74100
Zr645      Zr  0.99897218  0.93495852  0.24949520     2.77500
O646        O  0.04220053  0.89961186  0.24952030    -0.96600
O647        O  0.45960885  0.89552744  0.25013799    -0.77500
Zr648      Zr  0.06291104  0.99892611  0.25007567     2.70100
O649        O  0.10192614  0.95902454  0.25031773    -0.78700
O650        O  0.10384732  0.53953340  0.25024083    -0.97800
Zr651      Zr  0.00051148  0.50014812  0.19166629     2.21500
Zr652      Zr  0.50007207  0.99884516  0.30972211     2.11100
O653        O  0.03135577  0.96621119  0.27989447    -2.46500
O654        O  0.03154432  0.96660753  0.21963320    -0.78500
O655        O  0.46737069  0.96653417  0.28049081    -0.70700
O656        O  0.03343390  0.53281677  0.22086724    -2.31700
O657        O  0.46756385  0.96584256  0.22059341    -2.27900
O658        O  0.03334964  0.53294300  0.28101949    -0.72500
H659        H  0.45343700  0.54403182  0.29439767     0.79500
H660        H  0.04609105  0.54532927  0.20755123     0.80600
H661        H  0.04375510  0.95344899  0.29313839     0.82800
H662        H  0.45501420  0.95315114  0.20742124     0.80500
H663        H  0.05954594  0.59359518  0.25231137     0.43500
H664        H  0.10094567  0.55118931  0.26961542     0.42500
H665        H  0.09311534  0.94223864  0.23779105     0.42100
H666        H  0.04857390  0.89811077  0.27135225     0.40100
H667        H  0.44435979  0.90282432  0.26538102     0.43200
H668        H  0.40189763  0.94611991  0.23403753     0.38000
H669        H  0.40292287  0.55314159  0.26566835     0.44100
H670        H  0.44718137  0.59817380  0.27318757     0.40500
H671        H  0.03311626  0.87933252  0.24484603     0.45400
H672        H  0.37834003  0.96990735  0.24717580     0.44200
H673        H  0.46859374  0.62168963  0.25640710     0.44300
H674        H  0.12327356  0.52821953  0.25324513     0.44700
O675        O  0.49727070  0.69769311  0.08602276    -0.74200
O676        O  0.99947788  0.66290184  0.04867891    -0.53100
C677        C  0.49765253  0.66975100  0.07643536     0.79500
O678        O  0.41356384  0.80078968  0.00096694    -0.58800
O679        O  0.45120325  0.83701630  0.00171781    -0.51800
C680        C  0.42286321  0.82884796  0.00135711     0.71500
O681        O  0.41475845  0.69699965  0.00193257    -0.73400
O682        O  0.45267091  0.66118834  0.99982355    -0.53900
C683        C  0.42428516  0.66898142  0.00086274     0.77500
O684        O  0.50295450  0.80054656  0.08555343    -0.58500
O685        O  0.50174568  0.83690045  0.04799613    -0.51600
C686        C  0.50290272  0.82860102  0.07638948     0.74100
Zr687      Zr  0.50059835  0.74909725  0.06438404     2.54700
O688        O  0.46242805  0.75237987  0.10517129    -0.79100
O689        O  0.03822351  0.75292225  0.10337799    -0.92500
Zr690      Zr  0.43542912  0.74921750  0.00117386     2.64700
O691        O  0.39715728  0.74923853  0.04207983    -0.97500
O692        O  0.39512652  0.74865087  0.46603321    -0.79500
O693        O  0.46747632  0.71925521  0.03334268    -0.82900
O694        O  0.46734028  0.77904615  0.03353064    -2.17600
O695        O  0.08644706  0.80240928  0.50131079    -0.66300
O696        O  0.04690552  0.83836555  0.00222934    -0.50800
C697        C  0.07664401  0.83031762  0.50064320     0.72500
O698        O  0.00411354  0.69829647  0.41567192    -0.59200
O699        O  0.00184320  0.66216629  0.45354178    -0.51100
C700        C  0.00357483  0.67030452  0.42511102     0.74300
O701        O  0.99639435  0.80152033  0.41422804    -0.70600
O702        O  0.49729912  0.83730427  0.45301033    -0.49200
C703        C  0.99660273  0.82954827  0.42368943     0.75700
O704        O  0.08672722  0.69902277  0.00240479    -0.65900
O705        O  0.04923363  0.66269056  0.00232289    -0.53100
C706        C  0.07757047  0.67102090  0.50011613     0.74100
Zr707      Zr  0.06458820  0.75052555  0.00257486     2.77500
O708        O  0.09881440  0.75151743  0.45332010    -0.96600
O709        O  0.10256165  0.74991963  0.04352566    -0.77500
Zr710      Zr  0.99952973  0.74999043  0.43605114     2.70100
O711        O  0.03709904  0.75285643  0.39463487    -0.78700
O712        O  0.45528644  0.74744114  0.40019937    -0.97800
Zr713      Zr  0.00103392  0.69088554  0.00085328     2.21500
Zr714      Zr  0.49923193  0.80865735  0.00020444     2.11100
O715        O  0.03282897  0.78030729  0.46631925    -2.46500
O716        O  0.03285727  0.72024123  0.46704266    -0.78500
O717        O  0.03152779  0.78045710  0.03385893    -0.70700
O718        O  0.46670590  0.72020864  0.46936499    -2.31700
O719        O  0.03201879  0.72084405  0.03459587    -2.27900
O720        O  0.46644814  0.77968859  0.46940231    -0.72500
H721        H  0.45503999  0.79215503  0.04654348     0.79500
H722        H  0.45381212  0.70699844  0.45705949     0.80600
H723        H  0.04483385  0.79363576  0.45324627     0.82800
H724        H  0.04419720  0.70781842  0.04776432     0.80500
H725        H  0.37622779  0.75121937  0.47839207     0.43500
H726        H  0.44305950  0.76611781  0.40442740     0.42500
H727        H  0.05489026  0.74112299  0.40242295     0.42100
H728        H  0.09651498  0.77235434  0.44449782     0.40100
H729        H  0.09234678  0.73943402  0.06096708     0.43200
H730        H  0.05096803  0.73456207  0.09937947     0.38000
H731        H  0.44298865  0.74656901  0.09506741     0.44100
H732        H  0.40139010  0.76800212  0.05420536     0.40500
H733        H  0.11976501  0.75127000  0.46195007     0.45400
H734        H  0.02766018  0.74831424  0.12304820     0.44200
H735        H  0.37761766  0.75362980  0.03143169     0.44300
H736        H  0.46472434  0.75124768  0.37978567     0.44700
O737        O  0.30268339  0.58338557  0.00023596    -0.74200
O738        O  0.33832701  0.54532451  0.99956895    -0.53100
C739        C  0.33055604  0.57383942  0.99991111     0.79500
O740        O  0.19822266  0.99645158  0.08586389    -0.58800
O741        O  0.16288192  0.49989143  0.04883733    -0.51800
C742        C  0.17088885  0.49886708  0.07727841     0.71500
O743        O  0.30160532  0.99800843  0.08555068    -0.73400
O744        O  0.33744397  0.99896787  0.04753449    -0.53900
C745        C  0.33037549  0.49840267  0.07607419     0.77500
O746        O  0.19965031  0.58515094  0.00029115    -0.58500
O747        O  0.16327634  0.54773817  0.00093009    -0.51600
C748        C  0.17160388  0.57608682  0.00075375     0.74100
Zr749      Zr  0.25086293  0.56292052  0.99916268     2.54700
O750        O  0.25230016  0.60398877  0.03705002    -0.79100
O751        O  0.25041442  0.60174465  0.45750355    -0.92500
Zr752      Zr  0.24985931  0.99809253  0.06448108     2.64700
O753        O  0.25138439  0.54201502  0.10236579    -0.97500
O754        O  0.25089355  0.95567158  0.10099955    -0.79500
O755        O  0.28042409  0.53169297  0.03249069    -0.82900
O756        O  0.22101153  0.53258926  0.03317514    -2.17600
O757        O  0.19871609  0.49868895  0.41599540    -0.66300
O758        O  0.16296956  0.50009101  0.45415189    -0.50800
C759        C  0.17098526  0.99830066  0.42323837     0.72500
O760        O  0.30084104  0.91403180  0.99817576    -0.59200
O761        O  0.33697658  0.95171465  0.00004739    -0.51100
C762        C  0.32924711  0.92310485  0.50143297     0.74300
O763        O  0.19760058  0.91505601  0.00157227    -0.70600
O764        O  0.16204657  0.95324423  0.00105437    -0.49200
C765        C  0.17044784  0.92407349  0.50144953     0.75700
O766        O  0.30171629  0.49553321  0.41485769    -0.65900
O767        O  0.33778208  0.99851973  0.45268634    -0.53100
C768        C  0.32999610  0.99777116  0.42415988     0.74100
Zr769      Zr  0.25042298  0.49682884  0.43683170     2.77500
O770        O  0.25081253  0.95617974  0.39826993    -0.96600
O771        O  0.25118155  0.53330673  0.39430523    -0.77500
Zr772      Zr  0.24932974  0.93590977  0.99754697     2.70100
O773        O  0.24940930  0.89358911  0.46532798    -0.78700
O774        O  0.25144227  0.89295112  0.03333356    -0.97800
Zr775      Zr  0.30854230  0.99971161  0.99998764     2.21500
Zr776      Zr  0.19134823  0.49960138  0.00113795     2.11100
O777        O  0.22062817  0.96637264  0.46816463    -2.46500
O778        O  0.27985201  0.96598409  0.46824320    -0.78500
O779        O  0.22103398  0.53103823  0.46741276    -0.70700
O780        O  0.27900840  0.96624214  0.03152515    -2.31700
O781        O  0.28033608  0.53093539  0.46687916    -2.27900
O782        O  0.22000207  0.96661921  0.03172769    -0.72500
H783        H  0.20810947  0.54554108  0.04572835     0.79500
H784        H  0.29197956  0.95316553  0.04386199     0.80600
H785        H  0.20748896  0.95346232  0.45582451     0.82800
H786        H  0.29349107  0.54304469  0.45371765     0.80500
H787        H  0.23376733  0.94223699  0.09462520     0.43500
H788        H  0.23650648  0.89821176  0.04969288     0.42500
H789        H  0.25733244  0.90277424  0.44602431     0.42100
H790        H  0.23128279  0.94516005  0.40168259     0.40100
H791        H  0.26193417  0.55150934  0.40258255     0.43200
H792        H  0.26783263  0.59606896  0.44404516     0.38000
H793        H  0.26282332  0.59480941  0.05501778     0.44100
H794        H  0.23119203  0.55211188  0.10028795     0.40500
H795        H  0.24827016  0.96637157  0.37803206     0.45400
H796        H  0.25687801  0.62109407  0.46752268     0.44200
H797        H  0.25058490  0.53173917  0.12270911     0.44300
H798        H  0.24201145  0.87560554  0.02210068     0.44700
C799        C  0.34802872  0.87059881  0.98625922     0.24700
C800        C  0.35369689  0.89927446  0.50095331    -0.23400
C801        C  0.38151067  0.90479789  0.01451069     0.19600
C802        C  0.40420461  0.88199503  0.01495978     0.24600
C803        C  0.39902237  0.85323925  0.00107376    -0.23400
C804        C  0.37060823  0.84787352  0.98676487     0.19500
F805        F  0.36487801  0.82086872  0.97226534    -0.13300
F806        F  0.32133645  0.86455520  0.97148607    -0.15700
F807        F  0.43098836  0.88785989  0.02962957    -0.15700
F808        F  0.39049941  0.93381181  0.52312022    -0.13300
C809        C  0.34798284  0.62818597  0.99147189     0.24700
C810        C  0.35502256  0.59769736  0.99980048    -0.23400
C811        C  0.38540655  0.59068404  0.00813279     0.19600
C812        C  0.40798253  0.61361328  0.00840280     0.24600
C813        C  0.40070875  0.64420471  0.00046607    -0.23400
C814        C  0.37037787  0.65100472  0.99186518     0.19500
F815        F  0.36222096  0.67976998  0.98302814    -0.13300
F816        F  0.31938698  0.63612185  0.98220210    -0.15700
F817        F  0.43682144  0.60582123  0.01700005    -0.15700
F818        F  0.39331038  0.56173861  0.01656039    -0.13300
C819        C  0.11889241  0.90490015  0.48476469     0.24700
C820        C  0.14583958  0.90072440  0.50195987    -0.23400
C821        C  0.14936047  0.87368001  0.51935933     0.19600
C822        C  0.12647240  0.85127317  0.51954645     0.24600
C823        C  0.09983857  0.85506995  0.50181391    -0.23400
C824        C  0.09612589  0.88226294  0.48466193     0.19500
F825        F  0.06361354  0.89309535  0.98532232    -0.13300
F826        F  0.10754073  0.93644755  0.98388961    -0.15700
F827        F  0.13016242  0.82600659  0.53751612    -0.15700
F828        F  0.17487893  0.86903600  0.53654243    -0.13300
C829        C  0.11636792  0.59271170  0.49583100     0.24700
C830        C  0.14742947  0.60017638  0.00123607    -0.23400
C831        C  0.15370751  0.62996003  0.99021640     0.19600
C832        C  0.13119081  0.65278896  0.99078786     0.24600
C833        C  0.10151997  0.64661403  0.50024945    -0.23400
C834        C  0.09376365  0.61547850  0.49602681     0.19500
F835        F  0.06433423  0.60689049  0.49108447    -0.13300
F836        F  0.10767700  0.56319660  0.49097163    -0.15700
F837        F  0.13834358  0.68089407  0.97928723    -0.15700
F838        F  0.18150810  0.63696811  0.97803457    -0.13300
C839        C  0.34990547  0.47906823  0.37345042     0.24700
C840        C  0.35459515  0.99727017  0.40056886    -0.23400
C841        C  0.38426950  0.00799486  0.40730257     0.19600
C842        C  0.40678894  0.00897628  0.38437411     0.24600
C843        C  0.39970026  0.49580398  0.35479400    -0.23400
C844        C  0.37254839  0.47898985  0.35067557     0.19500
F845        F  0.36830238  0.46168218  0.32501413    -0.13300
F846        F  0.32437881  0.46182787  0.36916355    -0.15700
F847        F  0.43451263  0.02120202  0.39134352    -0.15700
F848        F  0.39143841  0.01832519  0.43585680    -0.13300
C849        C  0.11533547  0.00241425  0.40785118     0.24700
C850        C  0.14620063  0.99729042  0.39962929    -0.23400
C851        C  0.15372801  0.50690579  0.37065830     0.19600
C852        C  0.13102771  0.50797574  0.34814205     0.24600
C853        C  0.09920650  0.99655829  0.35429913    -0.23400
C854        C  0.09219703  0.00195605  0.38554990     0.19500
F855        F  0.06296356  0.00732605  0.39471770    -0.13300
F856        F  0.10732663  0.00844443  0.43748289    -0.15700
F857        F  0.13966839  0.51465835  0.31881168    -0.15700
F858        F  0.18312099  0.51172374  0.36164275    -0.13300
C859        C  0.13077382  0.49124995  0.15451227     0.24700
C860        C  0.09898932  0.99894434  0.14580063    -0.23400
C861        C  0.09171899  0.99426024  0.11450686     0.19600
C862        C  0.11476870  0.99368644  0.09204155     0.24600
C863        C  0.14634148  0.49805568  0.10102797    -0.23400
C864        C  0.15342417  0.49099623  0.13189464     0.19500
F865        F  0.18234470  0.48353136  0.14050927    -0.13300
F866        F  0.13915547  0.48466364  0.18391211    -0.15700
F867        F  0.10663286  0.98840078  0.06233025    -0.15700
F868        F  0.06231563  0.99003981  0.10541216    -0.13300
C869        C  0.37122039  0.48672902  0.15220009     0.24700
C870        C  0.40112622  0.49682101  0.14547778    -0.23400
C871        C  0.40801464  0.50608053  0.11508885     0.19600
C872        C  0.38533399  0.50597561  0.09231358     0.24600
C873        C  0.35511376  0.49707360  0.09948954    -0.23400
C874        C  0.34862311  0.48677371  0.12956090     0.19500
F875        F  0.32041861  0.47604367  0.13714013    -0.13300
F876        F  0.36366068  0.47639106  0.18074250    -0.15700
F877        F  0.39294422  0.51527578  0.06343419    -0.15700
F878        F  0.43644200  0.51620350  0.10748305    -0.13300
C879        C  0.48938661  0.61656931  0.40780893     0.24700
C880        C  0.00440716  0.64606064  0.40122341    -0.23400
C881        C  0.99594713  0.65309668  0.37071835     0.19000
C882        C  0.99539873  0.63037363  0.34823199     0.24600
C883        C  0.50083464  0.59929026  0.35564385    -0.23400
C884        C  0.48960945  0.59343069  0.38551164     0.19500
F885        F  0.47830326  0.56546133  0.39314699    -0.13300
F886        F  0.47709393  0.61032080  0.43589509    -0.15700
F887        F  0.98512709  0.63804825  0.31972995    -0.15700
F888        F  0.98736494  0.68193803  0.36251004    -0.13300
C889        C  0.48160024  0.84803201  0.37189825     0.24700
C890        C  0.99490597  0.85415262  0.40008902    -0.23400
C891        C  0.00534914  0.88409262  0.40656782     0.19600
C892        C  0.00520042  0.90671116  0.38375756     0.24600
C893        C  0.99454628  0.89997156  0.35393283    -0.23400
C894        C  0.48174678  0.87069878  0.34921983     0.19500
F895        F  0.46898042  0.86422275  0.32146087    -0.13300
F896        F  0.46864793  0.82048254  0.36525641    -0.15700
F897        F  0.01687960  0.93479528  0.39059627    -0.15700
F898        F  0.01687669  0.89138016  0.43462785    -0.13300
C899        C  0.49914160  0.90639306  0.11565442     0.24700
C900        C  0.99674569  0.90081487  0.14463309    -0.23400
C901        C  0.97850229  0.87445361  0.14801342     0.19600
C902        C  0.97795712  0.85212090  0.12500122     0.24600
C903        C  0.50373276  0.85276634  0.10045241    -0.23400
C904        C  0.49975067  0.88395149  0.09274858     0.19500
F905        F  0.49565071  0.89296262  0.06308520    -0.13300
F906        F  0.49392165  0.93591531  0.10706116    -0.15700
F907        F  0.95974540  0.82714048  0.12879809    -0.15700
F908        F  0.96083099  0.87045926  0.17348209    -0.13300
C909        C  0.48430189  0.65140710  0.12974221     0.24700
C910        C  0.49606304  0.64511824  0.10011826    -0.23400
C911        C  0.00570136  0.61621612  0.09340192     0.19600
C912        C  0.00568826  0.59332442  0.11596538     0.24600
C913        C  0.49538718  0.59913051  0.14640394    -0.23400
C914        C  0.48411783  0.62879677  0.15257994     0.19500
F915        F  0.47248964  0.63601118  0.18071449    -0.13300
F916        F  0.47251762  0.67941916  0.13671185    -0.15700
F917        F  0.01429713  0.56452310  0.10771691    -0.15700
F918        F  0.01471070  0.60855104  0.06445276    -0.13300
O919        O  0.41655666  0.50001788  0.69841095    -0.74200
O920        O  0.45443071  0.50147802  0.66242360    -0.53100
C921        C  0.42605144  0.50163680  0.67036995     0.79500
O922        O  0.49963623  0.58512763  0.80198707    -0.58800
O923        O  0.49784414  0.54755563  0.83845579    -0.51800
C924        C  0.49864219  0.57585259  0.83008234     0.71500
O925        O  0.50008941  0.58472483  0.69881624    -0.73400
O926        O  0.99856135  0.54771527  0.66265209    -0.53900
C927        C  0.50164601  0.57529361  0.67078137     0.77500
O928        O  0.41559682  0.49649121  0.80205416    -0.58500
O929        O  0.45229469  0.99954967  0.83835408    -0.51600
C930        C  0.42455656  0.49648007  0.83026389     0.74100
Zr931      Zr  0.43710803  0.49723903  0.75039143     2.54700
O932        O  0.39551204  0.53440251  0.74949689    -0.79100
O933        O  0.39724635  0.96034679  0.74917231    -0.92500
Zr934      Zr  0.49857124  0.56357287  0.75058598     2.64700
O935        O  0.45492416  0.59832629  0.75029420    -0.97500
O936        O  0.03473433  0.60408599  0.74933070    -0.79500
O937        O  0.46742397  0.53103985  0.72042225    -0.82900
O938        O  0.46686587  0.53115304  0.78056480    -2.17600
O939        O  0.00195034  0.91527365  0.80096975    -0.66300
O940        O  0.49975543  0.95327830  0.83852936    -0.50800
C941        C  0.00209446  0.92424842  0.82920931     0.72500
O942        O  0.08532902  0.00302034  0.69779443    -0.59200
O943        O  0.04831714  0.50006102  0.66303074    -0.51100
C944        C  0.07598763  0.00269361  0.66962111     0.74300
O945        O  0.08477611  0.00684316  0.80242287    -0.70600
O946        O  0.04676598  0.00384441  0.83836032    -0.49200
C947        C  0.07510085  0.00602356  0.83051621     0.75700
O948        O  0.00607245  0.91608619  0.69759315    -0.65900
O949        O  0.00336316  0.95398506  0.66159246    -0.53100
C950        C  0.00540543  0.92561035  0.66954216     0.74100
Zr951      Zr  0.00449041  0.93708154  0.74940179     2.77500
O952        O  0.04905439  0.90350709  0.75035579    -0.96600
O953        O  0.46091299  0.89725633  0.74870999    -0.77500
Zr954      Zr  0.06419691  0.00531497  0.75002072     2.70100
O955        O  0.10748651  0.97011089  0.75144697    -0.78700
O956        O  0.09762245  0.54707342  0.74887861    -0.97800
Zr957      Zr  0.00027131  0.49970573  0.69131160     2.21500
Zr958      Zr  0.49985189  0.00082875  0.80946663     2.11100
O959        O  0.03477377  0.97037973  0.77974339    -2.46500
O960        O  0.03497040  0.97091109  0.71966992    -0.78500
O961        O  0.46748938  0.96799879  0.78033779    -0.70700
O962        O  0.03095623  0.53379933  0.72085743    -2.31700
O963        O  0.46757427  0.96771615  0.72038387    -2.27900
O964        O  0.03054142  0.53383563  0.78103920    -0.72500
H965        H  0.45371462  0.54336723  0.79360923     0.79500
H966        H  0.04307066  0.54686248  0.70757778     0.80600
H967        H  0.04796632  0.95851604  0.79303564     0.82800
H968        H  0.45507348  0.95500351  0.70718282     0.80500
H969        H  0.05177770  0.59548181  0.73699784     0.43500
H970        H  0.09375963  0.55830570  0.76833087     0.42500
H971        H  0.10034440  0.95169579  0.74019956     0.42100
H972        H  0.05705427  0.90497509  0.77163139     0.40100
H973        H  0.44449765  0.90506684  0.76238199     0.43200
H974        H  0.40049797  0.94958150  0.72934602     0.38000
H975        H  0.40584865  0.55460992  0.74887162     0.44100
H976        H  0.44644751  0.59733129  0.77144816     0.40500
H977        H  0.04045686  0.88252689  0.74899449     0.45400
H978        H  0.37771832  0.97154868  0.74644139     0.44200
H979        H  0.46412635  0.61904618  0.74882564     0.44300
H980        H  0.11839546  0.53834162  0.75136744     0.44700
O981        O  0.50216960  0.69844503  0.58688025    -0.74200
O982        O  0.99943243  0.66327359  0.54898956    -0.53100
C983        C  0.50207841  0.67046078  0.57726140     0.79500
O984        O  0.41445333  0.80106950  0.50087989    -0.58800
O985        O  0.45211048  0.83718670  0.50091175    -0.51800
C986        C  0.42377206  0.82908362  0.50049630     0.71500
O987        O  0.41580344  0.69787202  0.50347624    -0.73400
O988        O  0.45349886  0.66198351  0.50090737    -0.53900
C989        C  0.42515430  0.66988555  0.50202240     0.77500
O990        O  0.50438479  0.80230911  0.58548950    -0.58500
O991        O  0.50142842  0.83843085  0.54775677    -0.51600
C992        C  0.50320353  0.83035894  0.57616216     0.74100
Zr993      Zr  0.50304237  0.75013737  0.56516651     2.54700
O994        O  0.46577092  0.75021396  0.60700646    -0.79100
O995        O  0.04514583  0.74918468  0.60136696    -0.92500
Zr996      Zr  0.43640187  0.74976883  0.50357724     2.64700
O997        O  0.40099921  0.74970315  0.54704222    -0.97500
O998        O  0.39697586  0.74880769  0.96069907    -0.79500
O999        O  0.46932158  0.72002403  0.53497753    -0.82900
O1000       O  0.46885553  0.77990242  0.53508431    -2.17600
O1001       O  0.08485786  0.80272690  0.00522072    -0.66300
O1002       O  0.04829404  0.83812745  0.49904720    -0.50800
C1003       C  0.07524572  0.83068500  0.00438777     0.72500
O1004       O  0.00305991  0.69706730  0.91540971    -0.59200
O1005       O  0.00174151  0.66129487  0.95366301    -0.51100
C1006       C  0.00212313  0.66914706  0.92509254     0.74300
O1007       O  0.00194128  0.80062306  0.91375442    -0.70600
O1008       O  0.49793123  0.83734471  0.95234082    -0.49200
C1009       C  0.00252162  0.82869422  0.92306379     0.75700
O1010       O  0.08675213  0.69906334  0.49873330    -0.65900
O1011       O  0.04923716  0.66292396  0.50138978    -0.53100
C1012       C  0.07757834  0.67090200  0.00238246     0.74100
Zr1013     Zr  0.06524820  0.75062684  0.49827285     2.77500
O1014       O  0.10407205  0.75291605  0.96292965    -0.96600
O1015       O  0.10711418  0.74961060  0.53512611    -0.77500
Zr1016     Zr  0.00289057  0.74911147  0.93582183     2.70100
O1017       O  0.04486209  0.74905118  0.89878801    -0.78700
O1018       O  0.45928669  0.74820248  0.89620554    -0.97800
Zr1019     Zr  0.00123114  0.69119793  0.50099012     2.21500
Zr1020     Zr  0.50013072  0.80901772  0.50069051     2.11100
O1021       O  0.03398614  0.77957560  0.96833485    -2.46500
O1022       O  0.03474195  0.71982545  0.96887931    -0.78500
O1023       O  0.03448522  0.78047486  0.53182727    -0.70700
O1024       O  0.46681936  0.71997194  0.96773514    -2.31700
O1025       O  0.03475018  0.72088573  0.53243316    -2.27900
O1026       O  0.46631668  0.77949672  0.96785450    -0.72500
H1027       H  0.45667832  0.79310985  0.54812473     0.79500
H1028       H  0.45413734  0.70680535  0.95516268     0.80600
H1029       H  0.04688278  0.79278277  0.95602762     0.82800
H1030       H  0.04757019  0.70784937  0.54499448     0.80500
H1031       H  0.40830687  0.74273265  0.94188741     0.43500
H1032       H  0.44709754  0.76710524  0.89939123     0.42500
H1033       H  0.06150871  0.73768167  0.90923043     0.42100
H1034       H  0.10244947  0.77378176  0.95401822     0.40100
H1035       H  0.09689522  0.75017171  0.55550084     0.43200
H1036       H  0.03563107  0.75427434  0.62145594     0.38000
H1037       H  0.44657747  0.75756749  0.59742073     0.44100
H1038       H  0.39892992  0.77151859  0.55308026     0.40500
H1039       H  0.12355563  0.75315905  0.97453824     0.45400
H1040       H  0.05775719  0.76737543  0.59625623     0.44200
H1041       H  0.38093321  0.74435260  0.53795869     0.44300
H1042       H  0.47033360  0.75171549  0.87657159     0.44700
O1043       O  0.30280924  0.58466897  0.49909665    -0.74200
O1044       O  0.33862100  0.54686252  0.50081546    -0.53100
C1045       C  0.33076614  0.57531900  0.49996812     0.79500
O1046       O  0.19859154  0.00192874  0.58600024    -0.58800
O1047       O  0.16409112  0.49930940  0.55012607    -0.51800
C1048       C  0.17209082  0.50076832  0.57859273     0.71500
O1049       O  0.30187330  0.00346589  0.58567996    -0.73400
O1050       O  0.33771820  0.00128113  0.54765511    -0.53900
C1051       C  0.33117355  0.50413053  0.57658720     0.77500
O1052       O  0.19959104  0.58534723  0.49710276    -0.58500
O1053       O  0.16355576  0.54797187  0.50186469    -0.51600
C1054       C  0.17166147  0.57628417  0.49940367     0.74100
Zr1055     Zr  0.25096524  0.56386681  0.49874307     2.54700
O1056       O  0.25107450  0.60358862  0.53820352    -0.79100
O1057       O  0.25063202  0.59966845  0.95685375    -0.92500
Zr1058     Zr  0.25008509  0.00190117  0.56462306     2.64700
O1059       O  0.25222546  0.54530645  0.60207503    -0.97500
O1060       O  0.25003801  0.96326005  0.60524277    -0.79500
O1061       O  0.28081355  0.53350022  0.53243330    -0.82900
O1062       O  0.22121198  0.53389772  0.53316879    -2.17600
O1063       O  0.19804142  0.50047523  0.91503126    -0.66300
O1064       O  0.16255675  0.50048003  0.95352396    -0.50800
C1065       C  0.16970284  0.00431696  0.92432159     0.72500
O1066       O  0.30129096  0.91374434  0.50222411    -0.59200
O1067       O  0.33727626  0.95154179  0.50076079    -0.51100
C1068       C  0.32882980  0.92331595  0.99933683     0.74300
O1069       O  0.19824458  0.91426660  0.50202441    -0.70600
O1070       O  0.16264424  0.95255533  0.50053113    -0.49200
C1071       C  0.16974888  0.92476145  0.00211769     0.75700
O1072       O  0.30123791  0.49648639  0.91437934    -0.65900
O1073       O  0.33730407  0.99950632  0.95250006    -0.53100
C1074       C  0.32934628  0.00009664  0.92403141     0.74100
Zr1075     Zr  0.24969812  0.49713328  0.93620482     2.77500
O1076       O  0.25032893  0.96288978  0.89546863    -0.96600
O1077       O  0.25049610  0.53571888  0.89571022    -0.77500
Zr1078     Zr  0.24985501  0.93560356  0.50225454     2.70100
O1079       O  0.24727578  0.90286294  0.95238114    -0.78700
O1080       O  0.24891602  0.90031685  0.54569983    -0.97800
Zr1081     Zr  0.30886411  0.99953665  0.50019363     2.21500
Zr1082     Zr  0.19187424  0.49998940  0.50181697     2.11100
O1083       O  0.21951246  0.96866061  0.96601941    -2.46500
O1084       O  0.27942854  0.96841251  0.96595120    -0.78500
O1085       O  0.22055453  0.53104932  0.96728956    -0.70700
O1086       O  0.27972284  0.96789307  0.53417731    -2.31700
O1087       O  0.28004979  0.53032506  0.96675845    -2.27900
O1088       O  0.22006978  0.96842903  0.53388626    -0.72500
H1089       H  0.20813166  0.54699515  0.54537788     0.79500
H1090       H  0.29280342  0.95562636  0.54722697     0.80600
H1091       H  0.20603417  0.95657471  0.95322438     0.82800
H1092       H  0.29331211  0.54250166  0.95375881     0.80500
H1093       H  0.23202678  0.95021182  0.60082003     0.43500
H1094       H  0.23117574  0.90702448  0.55823475     0.42500
H1095       H  0.26517688  0.90906998  0.93981178     0.42100
H1096       H  0.23396660  0.94833688  0.90144226     0.40100
H1097       H  0.24248989  0.55448236  0.90576253     0.43200
H1098       H  0.27133018  0.59828371  0.94763609     0.38000
H1099       H  0.26167417  0.59408393  0.55595197     0.44100
H1100       H  0.23468257  0.55839770  0.59612370     0.40500
H1101       H  0.24237208  0.97333190  0.87686323     0.45400
H1102       H  0.25022593  0.61997617  0.96708860     0.44200
H1103       H  0.24611642  0.53619779  0.62207038     0.44300
H1104       H  0.24244038  0.88048503  0.53668868     0.44700
C1105       C  0.34743309  0.86956484  0.48975072     0.24700
C1106       C  0.35316260  0.89941239  0.99999034    -0.23400
C1107       C  0.38351620  0.90581659  0.51139913     0.19600
C1108       C  0.40637665  0.88327353  0.51074484     0.24600
C1109       C  0.39998091  0.85350783  0.49986831    -0.23400
C1110       C  0.37023642  0.84705365  0.48913657     0.19500
F1111       F  0.36317604  0.81904089  0.47739789    -0.13300
F1112       F  0.31930532  0.86228624  0.47868520    -0.15700
F1113       F  0.43459336  0.89047137  0.52160715    -0.15700
F1114       F  0.38705259  0.93182077  0.02904820    -0.13300
C1115       C  0.34765051  0.63059700  0.49765381     0.24700
C1116       C  0.35532264  0.59920465  0.49998049    -0.23400
C1117       C  0.38658983  0.59125254  0.50228948     0.19600
C1118       C  0.40924277  0.61402681  0.50324805     0.24600
C1119       C  0.40137203  0.64537589  0.50123116    -0.23400
C1120       C  0.37022022  0.65319097  0.49807042     0.19500
F1121       F  0.36117632  0.68287521  0.49503783    -0.13300
F1122       F  0.31815211  0.63989472  0.49459793    -0.15700
F1123       F  0.43887638  0.60518027  0.50640305    -0.15700
F1124       F  0.39553418  0.56142455  0.50355582    -0.13300
C1125       C  0.11486328  0.90815762  0.99473310     0.24700
C1126       C  0.14500668  0.90131813  0.00403380    -0.23400
C1127       C  0.15142213  0.87150075  0.01485611     0.19600
C1128       C  0.12865492  0.84902542  0.01569634     0.24600
C1129       C  0.09871924  0.85550137  0.00551367    -0.23400
C1130       C  0.09202514  0.88557675  0.99545511     0.19500
F1131       F  0.07109011  0.88637880  0.46670361    -0.13300
F1132       F  0.11523496  0.93021285  0.46685285    -0.15700
F1133       F  0.13613852  0.82084330  0.02675701    -0.15700
F1134       F  0.17981285  0.86386594  0.02494226    -0.13300
C1135       C  0.11795592  0.59389889  0.01286378     0.24700
C1136       C  0.14745432  0.60038254  0.49965604    -0.23400
C1137       C  0.15524426  0.63156711  0.50367453     0.19600
C1138       C  0.13269039  0.65427298  0.50398967     0.24600
C1139       C  0.10156697  0.64649224  0.00216192    -0.23400
C1140       C  0.09529127  0.61667500  0.01314440     0.19500
F1141       F  0.06734155  0.60954172  0.02477702    -0.13300
F1142       F  0.11110140  0.56584977  0.02464006    -0.15700
F1143       F  0.14174341  0.68385760  0.50784127    -0.15700
F1144       F  0.18481105  0.64044726  0.50738555    -0.13300
C1145       C  0.34697354  0.48875911  0.86906361     0.24700
C1146       C  0.35384391  0.99925843  0.90038025    -0.23400
C1147       C  0.38405906  0.00787535  0.90761600     0.19600
C1148       C  0.40688537  0.00764922  0.88499748     0.24600
C1149       C  0.40050606  0.49541368  0.85451130    -0.23400
C1150       C  0.36992271  0.48868231  0.84668420     0.19500
F1151       F  0.36192291  0.48167740  0.81728575    -0.13300
F1152       F  0.31800300  0.48195901  0.86010516    -0.15700
F1153       F  0.43533622  0.01743148  0.89277875    -0.15700
F1154       F  0.39149378  0.01748311  0.93638677    -0.13300
C1155       C  0.11587950  0.99290874  0.90687203     0.24700
C1156       C  0.14476265  0.00616828  0.90113901    -0.23400
C1157       C  0.15150118  0.51305111  0.87139111     0.19600
C1158       C  0.12850666  0.51356946  0.84909563     0.24600
C1159       C  0.09845636  0.00724309  0.85539746    -0.23400
C1160       C  0.09293529  0.99360227  0.88435751     0.19500
F1161       F  0.06581528  0.97963054  0.89050105    -0.13300
F1162       F  0.11015246  0.97810207  0.93380175    -0.15700
F1163       F  0.13569717  0.52425552  0.82057680    -0.15700
F1164       F  0.17983037  0.52306757  0.86330224    -0.13300
C1165       C  0.13022207  0.48849127  0.65418460     0.24700
C1166       C  0.09969092  0.00188134  0.64510552    -0.23400
C1167       C  0.09466102  0.01565635  0.61613498     0.19600
C1168       C  0.11787353  0.01599671  0.59382264     0.24600
C1169       C  0.14754394  0.50047158  0.60219529    -0.23400
C1170       C  0.15333697  0.48902263  0.63194870     0.19500
F1171       F  0.18123471  0.47752202  0.63945779    -0.13300
F1172       F  0.13676793  0.47643355  0.68228078    -0.15700
F1173       F  0.11304760  0.03127719  0.56696126    -0.15700
F1174       F  0.06774160  0.02985550  0.60975323    -0.13300
C1175       C  0.37195374  0.51159538  0.65355352     0.24700
C1176       C  0.40235475  0.50379614  0.64587029    -0.23400
C1177       C  0.40946408  0.49777150  0.61476013     0.19600
C1178       C  0.38666072  0.49874409  0.59215244     0.24600
C1179       C  0.35600259  0.50535601  0.60008032    -0.23400
C1180       C  0.34917545  0.51231431  0.63108534     0.19500
F1181       F  0.32036959  0.52002823  0.64000133    -0.13300
F1182       F  0.36396702  0.51873686  0.68295995    -0.15700
F1183       F  0.39472388  0.49251359  0.56257758    -0.15700
F1184       F  0.43833088  0.49001075  0.60611951    -0.13300
C1185       C  0.48558153  0.61692635  0.90600880     0.24700
C1186       C  0.00068839  0.64467308  0.90139458    -0.23400
C1187       C  0.99004736  0.65157237  0.87154104     0.19000
C1188       C  0.98850116  0.62888385  0.84899900     0.24600
C1189       C  0.49860447  0.59971146  0.85424775    -0.23400
C1190       C  0.48563816  0.59403420  0.88341437     0.19500
F1191       F  0.47243503  0.56655622  0.88992138    -0.13300
F1192       F  0.47201578  0.61093904  0.93354840    -0.15700
F1193       F  0.97697660  0.63658037  0.82099149    -0.15700
F1194       F  0.98037756  0.68025967  0.86408088    -0.13300
C1195       C  0.48431038  0.84903100  0.87106712     0.24700
C1196       C  0.00313815  0.85336195  0.89929227    -0.23400
C1197       C  0.99990478  0.88454701  0.90754697     0.19600
C1198       C  0.99985424  0.90754893  0.88501321     0.24600
C1199       C  0.00273932  0.90004971  0.85351831    -0.23400
C1200       C  0.48387789  0.87218843  0.84882433     0.19500
F1201       F  0.47015137  0.86630171  0.82140233    -0.13300
F1202       F  0.47159414  0.82147683  0.86402619    -0.15700
F1203       F  0.99674196  0.93715752  0.89428082    -0.15700
F1204       F  0.99641389  0.89305108  0.93745752    -0.13300
C1205       C  0.50735405  0.90854367  0.61512820     0.24700
C1206       C  0.00666354  0.90197789  0.64494701    -0.23400
C1207       C  0.01687230  0.87203180  0.65170245     0.19600
C1208       C  0.01652806  0.84920264  0.62919476     0.24600
C1209       C  0.50321503  0.85475215  0.60005303    -0.23400
C1210       C  0.50818206  0.88583875  0.59236091     0.19500
F1211       F  0.51408264  0.89448019  0.56286251    -0.13300
F1212       F  0.51216738  0.93815782  0.60657234    -0.15700
F1213       F  0.02700267  0.82087242  0.63692117    -0.15700
F1214       F  0.02760724  0.86466884  0.68011991    -0.13300
C1215       C  0.51299777  0.65183462  0.63091904     0.24700
C1216       C  0.50253814  0.64570544  0.60084786    -0.23400
C1217       C  0.00939582  0.61735282  0.59458271     0.19600
C1218       C  0.00909965  0.59443504  0.61715400     0.24600
C1219       C  0.50249310  0.59911374  0.64640953    -0.23400
C1220       C  0.51298677  0.62888402  0.65333377     0.19500
F1221       F  0.52380457  0.63586315  0.68180561    -0.13300
F1222       F  0.52398746  0.67993509  0.63869996    -0.15700
F1223       F  0.02230010  0.56704656  0.61050496    -0.15700
F1224       F  0.02208243  0.61091566  0.56672180    -0.13300
O1225       O  0.91315777  0.00204500  0.19837565    -0.74200
O1226       O  0.95116277  0.00148780  0.16243740    -0.53100
C1227       C  0.92276456  0.00244159  0.17031593     0.79500
O1228       O  0.00225044  0.08421737  0.30261324    -0.58800
O1229       O  0.00049167  0.04626797  0.33868912    -0.51800
C1230       C  0.00191478  0.07465016  0.33070197     0.71500
O1231       O  0.99740317  0.08485057  0.19868057    -0.73400
O1232       O  0.50069971  0.04527213  0.16186684    -0.53900
C1233       C  0.99756958  0.07546551  0.17055845     0.77500
O1234       O  0.91324492  0.99797341  0.30159570    -0.58500
O1235       O  0.95324113  0.50175249  0.33933106    -0.51600
C1236       C  0.92280631  0.99878793  0.32960523     0.74100
Zr1237     Zr  0.93483714  0.99923234  0.24995356     2.54700
O1238       O  0.89475647  0.03801723  0.25202114    -0.79100
O1239       O  0.89634130  0.46291064  0.25222746    -0.92500
Zr1240     Zr  0.99909825  0.06353520  0.25049735     2.64700
O1241       O  0.95790097  0.10117743  0.25306047    -0.97500
O1242       O  0.54167693  0.10089276  0.24922519    -0.79500
O1243       O  0.96647453  0.03219040  0.22033911    -0.82900
O1244       O  0.96629886  0.03188065  0.28008619    -2.17600
O1245       O  0.49842473  0.41415001  0.30276585    -0.66300
O1246       O  0.99911965  0.45291738  0.33928376    -0.50800
C1247       C  0.49889435  0.42345337  0.33087946     0.72500
O1248       O  0.58489001  0.50032314  0.19976247    -0.59200
O1249       O  0.54834228  0.99699381  0.16267433    -0.51100
C1250       C  0.57578214  0.50087958  0.17158857     0.74300
O1251       O  0.58454476  0.50180751  0.30341504    -0.70600
O1252       O  0.54666895  0.50070372  0.33953052    -0.49200
C1253       C  0.57502228  0.50170999  0.33152361     0.75700
O1254       O  0.50231671  0.41353029  0.19976758    -0.65900
O1255       O  0.50171023  0.45123568  0.16338670    -0.53100
C1256       C  0.50224507  0.42281688  0.17163371     0.74100
Zr1257     Zr  0.50045813  0.43544909  0.25110999     2.77500
O1258       O  0.54201691  0.39824216  0.25135804    -0.96600
O1259       O  0.95887913  0.39822997  0.25204500    -0.77500
Zr1260     Zr  0.56341923  0.50011790  0.25150079     2.70100
O1261       O  0.60006478  0.45804848  0.25283029    -0.78700
O1262       O  0.60507761  0.03514290  0.24970922    -0.97800
Zr1263     Zr  0.50068511  0.99800749  0.19120581     2.21500
Zr1264     Zr  0.00055004  0.50055669  0.31038887     2.11100
O1265       O  0.53233973  0.46716693  0.28148878    -2.46500
O1266       O  0.53272126  0.46727277  0.22106800    -0.78500
O1267       O  0.96739565  0.46851043  0.28118240    -0.70700
O1268       O  0.53376625  0.03002003  0.22066219    -2.31700
O1269       O  0.96747530  0.46807618  0.22123862    -2.27900
O1270       O  0.53350648  0.03066456  0.28037090    -0.72500
H1271       H  0.95380143  0.04440356  0.29346501     0.79500
H1272       H  0.54666778  0.04235946  0.20743111     0.80600
H1273       H  0.54498304  0.45472517  0.29481203     0.82800
H1274       H  0.95477738  0.45546045  0.20812587     0.80500
H1275       H  0.53066785  0.12074105  0.24835790     0.43500
H1276       H  0.60222223  0.04723160  0.26881469     0.42500
H1277       H  0.62030657  0.46811826  0.25117092     0.42100
H1278       H  0.55149893  0.40019446  0.27196140     0.40100
H1279       H  0.94222987  0.40740190  0.23964423     0.43200
H1280       H  0.89949264  0.45051633  0.23337011     0.38000
H1281       H  0.90489431  0.05712384  0.24503593     0.44100
H1282       H  0.94666503  0.09637855  0.27230603     0.40500
H1283       H  0.53164959  0.37804164  0.25176998     0.45400
H1284       H  0.87726353  0.47453460  0.24832312     0.44200
H1285       H  0.96831417  0.12088632  0.25738197     0.44300
H1286       H  0.62406241  0.02324218  0.25325162     0.44700
O1287       O  0.99771510  0.19767983  0.08695916    -0.74200
O1288       O  0.50018499  0.16031034  0.04726115    -0.53100
C1289       C  0.99786280  0.16984200  0.07717503     0.79500
O1290       O  0.91321936  0.30016324  0.99857491    -0.58800
O1291       O  0.95083815  0.33632855  0.00132102    -0.51800
C1292       C  0.92257473  0.32815926  0.99958867     0.71500
O1293       O  0.91479378  0.19715418  0.00401908    -0.73400
O1294       O  0.95254082  0.16127316  0.00161460    -0.53900
C1295       C  0.92417185  0.16915938  0.00304441     0.77500
O1296       O  0.00074031  0.30039177  0.08783640    -0.58500
O1297       O  0.99893769  0.33650974  0.04992539    -0.51600
C1298       C  0.99989697  0.32838760  0.07840574     0.74100
Zr1299     Zr  0.00001684  0.24912091  0.06578579     2.54700
O1300       O  0.96109661  0.25001489  0.10594663    -0.79100
O1301       O  0.54023267  0.24574366  0.10473415    -0.92500
Zr1302     Zr  0.93543290  0.24898850  0.00190193     2.64700
O1303       O  0.89810649  0.25104423  0.04364145    -0.97500
O1304       O  0.89643254  0.25113616  0.45952441    -0.79500
O1305       O  0.96744059  0.21922122  0.03420597    -0.82900
O1306       O  0.96691729  0.27887196  0.03456912    -2.17600
O1307       O  0.58558423  0.30052164  0.50251264    -0.66300
O1308       O  0.54728633  0.33661254  0.00212704    -0.50800
C1309       C  0.57628659  0.32856141  0.50220167     0.72500
O1310       O  0.50250393  0.19734222  0.41382207    -0.59200
O1311       O  0.50072069  0.16134609  0.45185968    -0.51100
C1312       C  0.50150749  0.16934583  0.42336430     0.74300
O1313       O  0.49879765  0.30096245  0.41495800    -0.70600
O1314       O  0.00013618  0.33716832  0.45180854    -0.49200
C1315       C  0.49928062  0.32889272  0.42460377     0.75700
O1316       O  0.58558802  0.19701497  0.00026985    -0.65900
O1317       O  0.54758055  0.16118680  0.00020166    -0.53100
C1318       C  0.57609425  0.16876386  0.49810970     0.74100
Zr1319     Zr  0.56413473  0.24879876  0.99990753     2.77500
O1320       O  0.60199819  0.25069721  0.45818008    -0.96600
O1321       O  0.60396065  0.24743330  0.03903426    -0.77500
Zr1322     Zr  0.50154239  0.24903181  0.43541458     2.70100
O1323       O  0.54427934  0.25295272  0.39946683    -0.78700
O1324       O  0.95946346  0.24780110  0.39643020    -0.97800
Zr1325     Zr  0.49993971  0.18991408  0.00010105     2.21500
Zr1326     Zr  0.99907040  0.30859238  0.00175066     2.11100
O1327       O  0.53331206  0.27896863  0.46760827    -2.46500
O1328       O  0.53379057  0.21872510  0.46691534    -0.78500
O1329       O  0.53299292  0.27832010  0.03353153    -0.70700
O1330       O  0.96674004  0.21998988  0.46694167    -2.31700
O1331       O  0.53276193  0.21886911  0.03277791    -2.27900
O1332       O  0.96723358  0.27948935  0.46688264    -0.72500
H1333       H  0.95437442  0.29197973  0.04733684     0.79500
H1334       H  0.95424398  0.20670804  0.45428588     0.80600
H1335       H  0.54584238  0.29239273  0.45514737     0.82800
H1336       H  0.54535633  0.20551479  0.04521730     0.80500
H1337       H  0.87742700  0.24415358  0.46981946     0.43500
H1338       H  0.94473042  0.26380059  0.40299859     0.42500
H1339       H  0.55902871  0.23717714  0.40646665     0.42100
H1340       H  0.60002647  0.27153641  0.44927791     0.40100
H1341       H  0.59527580  0.23475545  0.05586146     0.43200
H1342       H  0.53114988  0.25603234  0.12292820     0.38000
H1343       H  0.94357070  0.23879592  0.09692652     0.44100
H1344       H  0.90355842  0.26952624  0.05570033     0.40500
H1345       H  0.62210841  0.25084452  0.46865154     0.45400
H1346       H  0.55628616  0.26005658  0.09743345     0.44200
H1347       H  0.87860063  0.25649281  0.03343376     0.44300
H1348       H  0.96913777  0.25624190  0.37759440     0.44700
O1349       O  0.80191807  0.08379668  0.00075218    -0.74200
O1350       O  0.83780866  0.04603634  0.99969855    -0.53100
C1351       C  0.82989361  0.07447234  0.00060085     0.79500
O1352       O  0.69847379  0.49959962  0.08752168    -0.58800
O1353       O  0.66280857  0.99705787  0.04755144    -0.51800
C1354       C  0.67073512  0.99626658  0.07605704     0.71500
O1355       O  0.80196326  0.49811452  0.08797624    -0.73400
O1356       O  0.83755220  0.49855475  0.04947498    -0.53900
C1357       C  0.82932994  0.00269834  0.07524606     0.77500
O1358       O  0.69792137  0.08439572  0.99923609    -0.58500
O1359       O  0.66215412  0.04632799  0.00043883    -0.51600
C1360       C  0.67001528  0.07477844  0.00016136     0.74100
Zr1361     Zr  0.74990632  0.06337890  0.99859459     2.54700
O1362       O  0.74946653  0.10402473  0.03705326    -0.79100
O1363       O  0.74989235  0.09987312  0.45495103    -0.92500
Zr1364     Zr  0.75030574  0.49944555  0.06650279     2.64700
O1365       O  0.74645943  0.03925086  0.10339690    -0.97500
O1366       O  0.74928133  0.46003959  0.10628844    -0.79500
O1367       O  0.77952341  0.03206580  0.03182593    -0.82900
O1368       O  0.72027244  0.03209520  0.03201362    -2.17600
O1369       O  0.69792538  0.99887446  0.41486225    -0.66300
O1370       O  0.66229023  0.99791564  0.45309731    -0.50800
C1371       C  0.66963422  0.50182144  0.42546133     0.72500
O1372       O  0.80095747  0.41289391  0.00025524    -0.59200
O1373       O  0.83706663  0.45064139  0.00198635    -0.51100
C1374       C  0.82959706  0.42396856  0.49717629     0.74300
O1375       O  0.69777059  0.41401921  0.00462251    -0.70600
O1376       O  0.66220443  0.45210280  0.00350357    -0.49200
C1377       C  0.67043437  0.42375401  0.50273730     0.75700
O1378       O  0.80104834  0.99626285  0.41377219    -0.65900
O1379       O  0.83769362  0.50015231  0.45266856    -0.53100
C1380       C  0.82968028  0.49928815  0.42421835     0.74100
Zr1381     Zr  0.74971425  0.99667127  0.43542731     2.77500
O1382       O  0.74970165  0.45931883  0.39777764    -0.96600
O1383       O  0.75024675  0.03271902  0.39256001    -0.77500
Zr1384     Zr  0.74965831  0.43483048  0.00214383     2.70100
O1385       O  0.74602279  0.39842155  0.45918470    -0.78700
O1386       O  0.75252609  0.39527539  0.04172134    -0.97800
Zr1387     Zr  0.80907659  0.49877322  0.00177015     2.21500
Zr1388     Zr  0.69118308  0.99895396  0.99961562     2.11100
O1389       O  0.72002339  0.46747287  0.46804440    -2.46500
O1390       O  0.77975370  0.46746965  0.46767943    -0.78500
O1391       O  0.72029294  0.03071783  0.46598603    -0.70700
O1392       O  0.77964328  0.46633341  0.03476793    -2.31700
O1393       O  0.77946980  0.03076518  0.46568533    -2.27900
O1394       O  0.72021071  0.46673439  0.03504903    -0.72500
H1395       H  0.70706661  0.04465734  0.04463672     0.79500
H1396       H  0.79269557  0.45356169  0.04734745     0.80600
H1397       H  0.70667418  0.45490361  0.45558206     0.82800
H1398       H  0.79254239  0.04294957  0.45250382     0.80500
H1399       H  0.76110419  0.44275060  0.09745983     0.43500
H1400       H  0.73568494  0.40019354  0.05619971     0.42500
H1401       H  0.76073039  0.40563047  0.44337924     0.42100
H1402       H  0.73228829  0.44597133  0.40357607     0.40100
H1403       H  0.75354697  0.05299744  0.40227858     0.43200
H1404       H  0.77033532  0.09777793  0.44530288     0.38000
H1405       H  0.74663466  0.09319976  0.05691569     0.44100
H1406       H  0.72854075  0.05188339  0.09756711     0.40500
H1407       H  0.74308778  0.46952638  0.37851601     0.45400
H1408       H  0.75027382  0.12028429  0.46496394     0.44200
H1409       H  0.73984938  0.02825628  0.12225271     0.44300
H1410       H  0.74583161  0.37625618  0.03123158     0.44700
C1411       C  0.84847641  0.37084769  0.98401394     0.24700
C1412       C  0.85420407  0.40037126  0.49562035    -0.23400
C1413       C  0.88116330  0.40317202  0.01532654     0.19600
C1414       C  0.90375882  0.38038906  0.01502659     0.24600
C1415       C  0.89896760  0.35260140  0.99919697    -0.23400
C1416       C  0.87101975  0.34807224  0.98374700     0.19500
F1417       F  0.86559376  0.32174453  0.96792302    -0.13300
F1418       F  0.82223630  0.36598809  0.96802259    -0.15700
F1419       F  0.92983769  0.38504265  0.03133263    -0.15700
F1420       F  0.89037321  0.43384759  0.52046787    -0.13300
C1421       C  0.84691509  0.12956221  0.99661929     0.24700
C1422       C  0.85434656  0.09840985  0.00146278    -0.23400
C1423       C  0.88521845  0.09074813  0.00719133     0.19600
C1424       C  0.90788505  0.11354563  0.00790205     0.24600
C1425       C  0.90031783  0.14465825  0.00303359    -0.23400
C1426       C  0.86941310  0.15223932  0.99754240     0.19500
F1427       F  0.86065045  0.18170338  0.99229453    -0.13300
F1428       F  0.81779907  0.13843287  0.99028889    -0.15700
F1429       F  0.93721166  0.10500006  0.01363958    -0.15700
F1430       F  0.89366943  0.06120066  0.01238820    -0.13300
C1431       C  0.61490930  0.40709501  0.50719776     0.24700
C1432       C  0.64607000  0.39957272  0.50299042    -0.23400
C1433       C  0.65381735  0.36835211  0.49882676     0.19600
C1434       C  0.63129682  0.34560899  0.49848412     0.24600
C1435       C  0.60015832  0.35308537  0.50279523    -0.23400
C1436       C  0.59236617  0.38416256  0.50753618     0.19500
F1437       F  0.56234531  0.39298544  0.99316596    -0.13300
F1438       F  0.60555460  0.43701089  0.99533294    -0.15700
F1439       F  0.64033675  0.31615811  0.49361019    -0.15700
F1440       F  0.68331344  0.35944749  0.49457175    -0.13300
C1441       C  0.61550092  0.09096941  0.50374277     0.24700
C1442       C  0.64537222  0.09828840  0.00124754    -0.23400
C1443       C  0.65086878  0.12709679  0.01485671     0.19600
C1444       C  0.62831137  0.14987435  0.01480715     0.24600
C1445       C  0.59978532  0.14428328  0.49671650    -0.23400
C1446       C  0.59291940  0.11372768  0.50493395     0.19500
F1447       F  0.56455090  0.10582397  0.51499932    -0.13300
F1448       F  0.60767363  0.06186329  0.51172439    -0.15700
F1449       F  0.63472343  0.17731038  0.02815818    -0.15700
F1450       F  0.67803377  0.13318641  0.02870860    -0.13300
C1451       C  0.84832264  0.01240667  0.37177876     0.24700
C1452       C  0.85428599  0.49953837  0.40051997    -0.23400
C1453       C  0.88455714  0.49103003  0.40796054     0.19600
C1454       C  0.90767285  0.49191473  0.38560885     0.24600
C1455       C  0.89928472  0.99851190  0.35406969    -0.23400
C1456       C  0.87116293  0.01350044  0.34934858     0.19500
F1457       F  0.86601311  0.03001157  0.32331127    -0.13300
F1458       F  0.82171697  0.02769008  0.36661767    -0.15700
F1459       F  0.93634702  0.48296916  0.39366081    -0.15700
F1460       F  0.89184885  0.48121047  0.43672931    -0.13300
C1461       C  0.61514515  0.49174829  0.40873903     0.24700
C1462       C  0.64478624  0.50283428  0.40204876    -0.23400
C1463       C  0.65183819  0.00935658  0.37090395     0.19600
C1464       C  0.62903515  0.00952502  0.34851275     0.24600
C1465       C  0.59859018  0.50274949  0.35616114    -0.23400
C1466       C  0.59236376  0.49162638  0.38603531     0.19500
F1467       F  0.56453088  0.47962463  0.39310535    -0.13300
F1468       F  0.60830615  0.48012018  0.43697382    -0.15700
F1469       F  0.63625815  0.02024325  0.32002168    -0.15700
F1470       F  0.68006104  0.01981539  0.36299048    -0.13300
C1471       C  0.63053652  0.98621414  0.15305877     0.24700
C1472       C  0.59969479  0.50139363  0.14726869    -0.23400
C1473       C  0.59286638  0.49304658  0.11668039     0.19600
C1474       C  0.61571763  0.49301312  0.09407281     0.24600
C1475       C  0.64627267  0.99514554  0.09986376    -0.23400
C1476       C  0.65314185  0.98624240  0.13031389     0.19500
F1477       F  0.68176972  0.97711151  0.13829677    -0.13300
F1478       F  0.63839700  0.97686385  0.18183718    -0.15700
F1479       F  0.60810272  0.48438458  0.06501586    -0.15700
F1480       F  0.56416294  0.48438743  0.10855879    -0.13300
C1481       C  0.86913372  0.01311623  0.15222959     0.24700
C1482       C  0.89934087  0.00387821  0.14550808    -0.23400
C1483       C  0.90667956  0.99573528  0.11492774     0.19600
C1484       C  0.88423233  0.99588044  0.09197150     0.24600
C1485       C  0.85379068  0.00414447  0.09898739    -0.23400
C1486       C  0.84672462  0.01316617  0.12938227     0.19500
F1487       F  0.81806163  0.02241320  0.13724050    -0.13300
F1488       F  0.86110463  0.02269447  0.18090611    -0.15700
F1489       F  0.89238276  0.98724667  0.06303219    -0.15700
F1490       F  0.93550974  0.98700794  0.10714798    -0.13300
C1491       C  0.98960232  0.11532222  0.40718937     0.24700
C1492       C  0.50083104  0.14476411  0.39975753    -0.23400
C1493       C  0.49092726  0.15134975  0.36959951     0.19000
C1494       C  0.49062626  0.12856201  0.34710729     0.24600
C1495       C  0.00282945  0.09820939  0.35533615    -0.23400
C1496       C  0.99023432  0.09232147  0.38468491     0.19500
F1497       F  0.97734647  0.06471698  0.39130458    -0.13300
F1498       F  0.97574187  0.10925613  0.43457300    -0.15700
F1499       F  0.48044410  0.13603834  0.31851805    -0.15700
F1500       F  0.48080743  0.17978310  0.36179396    -0.13300
C1501       C  0.98422715  0.34877561  0.37150469     0.24700
C1502       C  0.49948356  0.35344165  0.40099613    -0.23400
C1503       C  0.49033316  0.38361692  0.40827567     0.19600
C1504       C  0.49010090  0.40642122  0.38559518     0.24600
C1505       C  0.49913112  0.39959563  0.35518103    -0.23400
C1506       C  0.98347050  0.37204270  0.34945436     0.19500
F1507       F  0.96880617  0.36656512  0.32245023    -0.13300
F1508       F  0.97030844  0.32165258  0.36506667    -0.15700
F1509       F  0.47993049  0.43487589  0.39326753    -0.15700
F1510       F  0.48064045  0.39099164  0.43709309    -0.13300
C1511       C  0.00845099  0.40613727  0.11702580     0.24700
C1512       C  0.50230918  0.39878224  0.14734234    -0.23400
C1513       C  0.49181186  0.36891102  0.15413640     0.19600
C1514       C  0.49209285  0.34601458  0.13166578     0.24600
C1515       C  0.99983840  0.35286911  0.10213246    -0.23400
C1516       C  0.00862284  0.38307994  0.09462853     0.19500
F1517       F  0.01835862  0.39027322  0.06577620    -0.13300
F1518       F  0.01774034  0.43473182  0.10880266    -0.15700
F1519       F  0.48163039  0.31766675  0.13938342    -0.15700
F1520       F  0.48045940  0.36182112  0.18242420    -0.13300
C1521       C  0.98421091  0.15105479  0.12987219     0.24700
C1522       C  0.99674880  0.14526732  0.10055142    -0.23400
C1523       C  0.51185206  0.11399019  0.09283853     0.19600
C1524       C  0.51204741  0.09114771  0.11557866     0.24600
C1525       C  0.99668802  0.09911753  0.14616247    -0.23400
C1526       C  0.98415518  0.12825468  0.15238510     0.19500
F1527       F  0.97131202  0.13468957  0.18017096    -0.13300
F1528       F  0.97147146  0.17867281  0.13675278    -0.15700
F1529       F  0.52408886  0.06327042  0.10861827    -0.15700
F1530       F  0.52394531  0.10745752  0.06473157    -0.13300
O1531       O  0.91474757  0.99885153  0.69774178    -0.74200
O1532       O  0.95266160  0.00146358  0.66164877    -0.53100
C1533       C  0.92429469  0.00034206  0.66967645     0.79500
O1534       O  0.99713427  0.08603064  0.80202863    -0.58800
O1535       O  0.99628845  0.04793875  0.83795547    -0.51800
C1536       C  0.99650227  0.07639878  0.83003382     0.71500
O1537       O  0.99350884  0.08597140  0.69852864    -0.73400
O1538       O  0.49977415  0.04761604  0.66184443    -0.53900
C1539       C  0.99628925  0.07709337  0.67040619     0.77500
O1540       O  0.91500164  0.99389366  0.80166234    -0.58500
O1541       O  0.95195438  0.49713599  0.83851173    -0.51600
C1542       C  0.92427012  0.99438759  0.82980505     0.74100
Zr1543     Zr  0.93595791  0.99639205  0.74962590     2.54700
O1544       O  0.89279371  0.03163770  0.75215476    -0.79100
O1545       O  0.90017270  0.45340219  0.75026424    -0.92500
Zr1546     Zr  0.99555673  0.06480131  0.75028761     2.64700
O1547       O  0.95213339  0.09980200  0.75229332    -0.97500
O1548       O  0.53871860  0.10440955  0.75006603    -0.79500
O1549       O  0.96529741  0.03144263  0.71996436    -0.82900
O1550       O  0.96489917  0.03105315  0.77994719    -2.17600
O1551       O  0.50119536  0.41453713  0.80376256    -0.66300
O1552       O  0.99990795  0.45193240  0.83883672    -0.50800
C1553       C  0.49994387  0.42415158  0.83185401     0.72500
O1554       O  0.58701688  0.50035266  0.70039933    -0.59200
O1555       O  0.54803654  0.99963094  0.66233441    -0.51100
C1556       C  0.57769070  0.49901797  0.67234471     0.74300
O1557       O  0.58569999  0.50254780  0.80361446    -0.70600
O1558       O  0.54774791  0.50124333  0.83957333    -0.49200
C1559       C  0.57615726  0.50216500  0.83165964     0.75700
O1560       O  0.50457513  0.41458259  0.69922590    -0.65900
O1561       O  0.50178400  0.45201365  0.66280450    -0.53100
C1562       C  0.50328934  0.42369312  0.67100898     0.74100
Zr1563     Zr  0.50362949  0.43532934  0.75138090     2.77500
O1564       O  0.54750232  0.40080734  0.75147406    -0.96600
O1565       O  0.96480454  0.39443302  0.75003639    -0.77500
Zr1566     Zr  0.56496092  0.50181406  0.75176685     2.70100
O1567       O  0.60604925  0.46407303  0.75265786    -0.78700
O1568       O  0.59948915  0.04464082  0.74790809    -0.97800
Zr1569     Zr  0.50019424  0.00036599  0.69095079     2.21500
Zr1570     Zr  0.99952655  0.49930876  0.80993761     2.11100
O1571       O  0.53454484  0.46804389  0.78168008    -2.46500
O1572       O  0.53503472  0.46807565  0.72146683    -0.78500
O1573       O  0.96860229  0.46533072  0.78052356    -0.70700
O1574       O  0.53218484  0.03385383  0.71983205    -2.31700
O1575       O  0.96892131  0.46549437  0.72054593    -2.27900
O1576       O  0.53193129  0.03400564  0.78011015    -0.72500
H1577       H  0.95150163  0.04270769  0.79326022     0.79500
H1578       H  0.54467858  0.04645074  0.70645304     0.80600
H1579       H  0.54729420  0.45594625  0.79520296     0.82800
H1580       H  0.95696434  0.45234625  0.70725014     0.80500
H1581       H  0.55444942  0.09691795  0.73544297     0.43500
H1582       H  0.59270996  0.05860719  0.76456928     0.42500
H1583       H  0.59616319  0.44463693  0.74633346     0.42100
H1584       H  0.55800987  0.40478593  0.77126016     0.40100
H1585       H  0.94718259  0.40290602  0.76162526     0.43200
H1586       H  0.90214342  0.44425027  0.72947563     0.38000
H1587       H  0.90124920  0.05155523  0.74518687     0.44100
H1588       H  0.94321601  0.09702474  0.77310263     0.40500
H1589       H  0.53853634  0.38008251  0.75393312     0.45400
H1590       H  0.87966155  0.46306512  0.75035880     0.44200
H1591       H  0.96149135  0.12049659  0.75284803     0.44300
H1592       H  0.61907230  0.03598875  0.75536890     0.44700
O1593       O  0.99869768  0.19955728  0.58553435    -0.74200
O1594       O  0.50032026  0.16121174  0.54713813    -0.53100
C1595       C  0.99860108  0.17154072  0.57633416     0.79500
O1596       O  0.91369588  0.30160388  0.49704791    -0.58800
O1597       O  0.95185183  0.33725409  0.49703652    -0.51800
C1598       C  0.92343739  0.32949168  0.49626329     0.71500
O1599       O  0.91460046  0.19802410  0.49968048    -0.73400
O1600       O  0.95229145  0.16202664  0.49972152    -0.53900
C1601       C  0.92393171  0.16996492  0.49950640     0.77500
O1602       O  0.00190442  0.30244976  0.58463601    -0.58500
O1603       O  0.00002104  0.33841168  0.54674083    -0.51600
C1604       C  0.00149659  0.33044355  0.57523327     0.74100
Zr1605     Zr  0.00002554  0.25075419  0.56375419     2.54700
O1606       O  0.96074162  0.25208566  0.60354642    -0.79100
O1607       O  0.53997155  0.24730283  0.60354249    -0.92500
Zr1608     Zr  0.93529795  0.25006502  0.49972247     2.64700
O1609       O  0.89719382  0.24892028  0.54080095    -0.97500
O1610       O  0.89630716  0.24592077  0.96214411    -0.79500
O1611       O  0.96714572  0.22069417  0.53260142    -0.82900
O1612       O  0.96677999  0.28024542  0.53241753    -2.17600
O1613       O  0.58506875  0.30069807  0.00260821    -0.66300
O1614       O  0.54793131  0.33655057  0.50117820    -0.50800
C1615       C  0.57564305  0.32873416  0.00290156     0.72500
O1616       O  0.50026314  0.19861164  0.91428334    -0.59200
O1617       O  0.49926233  0.16219838  0.95191135    -0.51100
C1618       C  0.49961862  0.17058417  0.92351612     0.74300
O1619       O  0.49777263  0.30187785  0.91621727    -0.70600
O1620       O  0.99806089  0.33780680  0.95429772    -0.49200
C1621       C  0.49841604  0.32974524  0.92605487     0.75700
O1622       O  0.58546541  0.19679246  0.49849528    -0.65900
O1623       O  0.54778105  0.16075224  0.49874081    -0.53100
C1624       C  0.57597867  0.16904846  0.00055031     0.74100
Zr1625     Zr  0.56470477  0.24876390  0.49999911     2.77500
O1626       O  0.60052088  0.24945431  0.95730289    -0.96600
O1627       O  0.60523693  0.24748894  0.53833152    -0.77500
Zr1628     Zr  0.49926113  0.24971605  0.93638264     2.70100
O1629       O  0.53801647  0.25082937  0.89596871    -0.78700
O1630       O  0.95846435  0.25039677  0.89891260    -0.97800
Zr1631     Zr  0.50062471  0.18993678  0.49954841     2.21500
Zr1632     Zr  0.99970459  0.30899156  0.49941221     2.11100
O1633       O  0.53230513  0.27910286  0.96790208    -2.46500
O1634       O  0.53229610  0.21926126  0.96714369    -0.78500
O1635       O  0.53295668  0.27846848  0.53294383    -0.70700
O1636       O  0.96692440  0.21958118  0.96866264    -2.31700
O1637       O  0.53297846  0.21903224  0.53278166    -2.27900
O1638       O  0.96662144  0.27927519  0.96912733    -0.72500
H1639       H  0.95432089  0.29360468  0.54501763     0.79500
H1640       H  0.95434328  0.20633345  0.95606812     0.80600
H1641       H  0.54472669  0.29248263  0.95528375     0.82800
H1642       H  0.54546964  0.20572670  0.54538364     0.80500
H1643       H  0.90759564  0.24039874  0.94313487     0.43500
H1644       H  0.94607303  0.26875086  0.90402379     0.42500
H1645       H  0.55743065  0.24617389  0.90671845     0.42100
H1646       H  0.60238630  0.27132132  0.95135790     0.40100
H1647       H  0.59623581  0.25769653  0.55660586     0.43200
H1648       H  0.55145470  0.22813310  0.59943642     0.38000
H1649       H  0.94284195  0.24194394  0.59401293     0.44100
H1650       H  0.90231631  0.26660201  0.55414194     0.40500
H1651       H  0.62043321  0.24437445  0.96688092     0.45400
H1652       H  0.52891467  0.24331177  0.62307883     0.44200
H1653       H  0.87779249  0.25486533  0.53067054     0.44300
H1654       H  0.96881319  0.25572604  0.87930932     0.44700
O1655       O  0.80158124  0.08482324  0.49857548    -0.74200
O1656       O  0.83746737  0.04704515  0.49696937    -0.53100
C1657       C  0.82953263  0.07547063  0.49766866     0.79500
O1658       O  0.69905929  0.49924443  0.58669249    -0.58800
O1659       O  0.66280202  0.99901967  0.54741976    -0.51800
C1660       C  0.67081530  0.99991523  0.57584012     0.71500
O1661       O  0.80249099  0.49927808  0.58627593    -0.73400
O1662       O  0.83800290  0.49795113  0.54778241    -0.53900
C1663       C  0.83031579  0.00168668  0.57557439     0.77500
O1664       O  0.69831174  0.08445217  0.49588820    -0.58500
O1665       O  0.66273064  0.04637812  0.49763770    -0.51600
C1666       C  0.67046064  0.07482031  0.49616228     0.74100
Zr1667     Zr  0.74999574  0.06354033  0.49756540     2.54700
O1668       O  0.74942997  0.10404924  0.53623286    -0.79100
O1669       O  0.75097957  0.10191304  0.95786254    -0.92500
Zr1670     Zr  0.75071338  0.50066111  0.56514459     2.64700
O1671       O  0.75043555  0.04620708  0.59877595    -0.97500
O1672       O  0.75076780  0.46196762  0.60559103    -0.79500
O1673       O  0.78024360  0.03342432  0.53131395    -0.82900
O1674       O  0.72035688  0.03318587  0.53167194    -2.17600
O1675       O  0.69823736  0.99951345  0.91366473    -0.66300
O1676       O  0.66264502  0.00092727  0.95200688    -0.50800
C1677       C  0.67067828  0.50045030  0.92571723     0.72500
O1678       O  0.80164474  0.41450229  0.49699438    -0.59200
O1679       O  0.83755421  0.45235928  0.49876253    -0.51100
C1680       C  0.82889113  0.42228454  0.00078985     0.74300
O1681       O  0.69844218  0.41457872  0.50312834    -0.70600
O1682       O  0.66242812  0.45222125  0.50184624    -0.49200
C1683       C  0.66985621  0.42359719  0.00472757     0.75700
O1684       O  0.80135045  0.99449998  0.91348281    -0.65900
O1685       O  0.83795896  0.49756531  0.95397390    -0.53100
C1686       C  0.83008008  0.49642460  0.92543775     0.74100
Zr1687     Zr  0.74980597  0.99813933  0.93474686     2.77500
O1688       O  0.75092751  0.46057810  0.89625045    -0.96600
O1689       O  0.75118725  0.03946196  0.89701022    -0.77500
Zr1690     Zr  0.75001152  0.43587841  0.50056581     2.70100
O1691       O  0.74743037  0.39695664  0.96107512    -0.78700
O1692       O  0.75298701  0.39577739  0.53956755    -0.97800
Zr1693     Zr  0.80905375  0.50012137  0.50030961     2.21500
Zr1694     Zr  0.69163371  0.99901682  0.50007933     2.11100
O1695       O  0.72040930  0.46642072  0.96891402    -2.46500
O1696       O  0.77968395  0.46620659  0.96921257    -0.78500
O1697       O  0.72020134  0.03127306  0.96628163    -0.70700
O1698       O  0.77985146  0.46747422  0.53323736    -2.31700
O1699       O  0.77958833  0.03131990  0.96592540    -2.27900
O1700       O  0.72075873  0.46769358  0.53383680    -0.72500
H1701       H  0.70702820  0.04612927  0.54377288     0.79500
H1702       H  0.79296212  0.45464115  0.54569152     0.80600
H1703       H  0.70711966  0.45382696  0.95641592     0.82800
H1704       H  0.79290825  0.04363817  0.95311813     0.80500
H1705       H  0.74726692  0.44238843  0.59458803     0.43500
H1706       H  0.73718393  0.40139150  0.55494262     0.42500
H1707       H  0.76217330  0.40452047  0.94546454     0.42100
H1708       H  0.73444195  0.44601169  0.90184967     0.40100
H1709       H  0.73914866  0.05619750  0.90660164     0.43200
H1710       H  0.77219179  0.10155416  0.94980066     0.38000
H1711       H  0.76296230  0.09638518  0.55282151     0.44100
H1712       H  0.73010403  0.05582829  0.59594045     0.40500
H1713       H  0.74312787  0.47147088  0.87783148     0.45400
H1714       H  0.74936983  0.12175067  0.96888905     0.44200
H1715       H  0.74963103  0.03722740  0.61972447     0.44300
H1716       H  0.74472471  0.37726101  0.52930424     0.44700
C1717       C  0.84819118  0.37113810  0.48311844     0.24700
C1718       C  0.85321308  0.39858828  0.99993921    -0.23400
C1719       C  0.88372307  0.40641641  0.50723044     0.19600
C1720       C  0.90639790  0.38368700  0.50675284     0.24600
C1721       C  0.90012403  0.35429797  0.49482178    -0.23400
C1722       C  0.87084747  0.34848448  0.48261327     0.19500
F1723       F  0.86399085  0.32079688  0.47002550    -0.13300
F1724       F  0.82026991  0.36426879  0.47130610    -0.15700
F1725       F  0.93408732  0.39010341  0.51933929    -0.15700
F1726       F  0.88627165  0.42929752  0.03157754    -0.13300
C1727       C  0.84661222  0.13042369  0.49291201     0.24700
C1728       C  0.85405649  0.09927771  0.49755931    -0.23400
C1729       C  0.88503246  0.09146622  0.50242177     0.19600
C1730       C  0.90774329  0.11418461  0.50296341     0.24600
C1731       C  0.90013096  0.14539961  0.49869994    -0.23400
C1732       C  0.86919617  0.15302590  0.49343074     0.19500
F1733       F  0.86043333  0.18249395  0.48829973    -0.13300
F1734       F  0.81734057  0.13937340  0.48748437    -0.15700
F1735       F  0.93713431  0.10541347  0.50800973    -0.15700
F1736       F  0.89354395  0.06185979  0.50715350    -0.13300
C1737       C  0.61417942  0.40746800  0.00026646     0.24700
C1738       C  0.64510007  0.39990493  0.00594757    -0.23400
C1739       C  0.65234607  0.36897232  0.01223787     0.19600
C1740       C  0.62996300  0.34615448  0.01107095     0.24600
C1741       C  0.59926203  0.35345315  0.00434584    -0.23400
C1742       C  0.59161404  0.38456025  0.99938311     0.19500
F1743       F  0.56292800  0.39255271  0.51303512    -0.13300
F1744       F  0.60600872  0.43667017  0.51128610    -0.15700
F1745       F  0.63866161  0.31679553  0.01692076    -0.15700
F1746       F  0.68118226  0.36049493  0.02013459    -0.13300
C1747       C  0.61630454  0.09248514  0.98850419     0.24700
C1748       C  0.64579410  0.09833646  0.49523474    -0.23400
C1749       C  0.65251627  0.12884095  0.48671579     0.19600
C1750       C  0.62981834  0.15135735  0.48715010     0.24600
C1751       C  0.59945011  0.14434215  0.00151896    -0.23400
C1752       C  0.59357413  0.11519282  0.98882009     0.19500
F1753       F  0.56620854  0.10898699  0.97552957    -0.13300
F1754       F  0.61016388  0.06526175  0.97459679    -0.15700
F1755       F  0.63743261  0.18013506  0.47781806    -0.15700
F1756       F  0.68111124  0.13713099  0.47762916    -0.13300
C1757       C  0.84795318  0.98274105  0.86984587     0.24700
C1758       C  0.85463632  0.49519923  0.90176729    -0.23400
C1759       C  0.88335748  0.50890043  0.90703780     0.19600
C1760       C  0.90587243  0.50881975  0.88403257     0.24600
C1761       C  0.90058448  0.99298507  0.85431831    -0.23400
C1762       C  0.87097309  0.98217085  0.84754249     0.19500
F1763       F  0.86411819  0.97075436  0.81926720    -0.13300
F1764       F  0.81975855  0.97230165  0.86195217    -0.15700
F1765       F  0.93273901  0.52348821  0.88950614    -0.15700
F1766       F  0.88936216  0.52342205  0.93403435    -0.13300
C1767       C  0.61587527  0.49247877  0.90910893     0.24700
C1768       C  0.64612979  0.50136602  0.90201888    -0.23400
C1769       C  0.65253789  0.01154241  0.86964315     0.19600
C1770       C  0.62981687  0.01195932  0.84714484     0.24600
C1771       C  0.59989232  0.50248509  0.85618072    -0.23400
C1772       C  0.59311076  0.49289361  0.88644334     0.19500
F1773       F  0.56463497  0.48301211  0.89406030    -0.13300
F1774       F  0.60830635  0.48251946  0.93778256    -0.15700
F1775       F  0.63759606  0.02164763  0.81842253    -0.15700
F1776       F  0.68106799  0.02109579  0.86168168    -0.13300
C1777       C  0.63114305  0.99393339  0.65337330     0.24700
C1778       C  0.60123693  0.49822381  0.64783505    -0.23400
C1779       C  0.59424228  0.50793663  0.61772776     0.19600
C1780       C  0.61668120  0.50777736  0.59476301     0.24600
C1781       C  0.64636362  0.99968253  0.59965951    -0.23400
C1782       C  0.65374290  0.99383834  0.63067588     0.19500
F1783       F  0.68294509  0.98758770  0.63933167    -0.13300
F1784       F  0.63980187  0.98792088  0.68279531    -0.15700
F1785       F  0.60898842  0.51799429  0.56628062    -0.15700
F1786       F  0.56590680  0.51861406  0.61061405    -0.13300
C1787       C  0.87265306  0.98522172  0.64981472     0.24700
C1788       C  0.90070731  0.00044429  0.64510035    -0.23400
C1789       C  0.90564785  0.01582810  0.61694761     0.19600
C1790       C  0.88298225  0.01603436  0.59412211     0.24600
C1791       C  0.85483046  0.00110455  0.59911331    -0.23400
C1792       C  0.85002496  0.98560059  0.62715630     0.19500
F1793       F  0.82354865  0.97014069  0.63248050    -0.13300
F1794       F  0.86721938  0.96934140  0.67620711    -0.15700
F1795       F  0.88816644  0.03180894  0.56763090    -0.15700
F1796       F  0.93195158  0.03162882  0.61190074    -0.13300
C1797       C  0.00795334  0.11554711  0.90727222     0.24700
C1798       C  0.49909409  0.14646998  0.89959104    -0.23400
C1799       C  0.48904203  0.15337301  0.86954875     0.19000
C1800       C  0.48862117  0.13074592  0.84690877     0.24600
C1801       C  0.99628461  0.09993701  0.85467395    -0.23400
C1802       C  0.00731064  0.09302731  0.88432909     0.19500
F1803       F  0.01841410  0.06467127  0.89097617    -0.13300
F1804       F  0.01892188  0.10781179  0.93547863    -0.15700
F1805       F  0.47733531  0.13812722  0.81870832    -0.15700
F1806       F  0.47892442  0.18190186  0.86203675    -0.13300
C1807       C  0.98837884  0.34737248  0.87152691     0.24700
C1808       C  0.49787700  0.35450654  0.90262983    -0.23400
C1809       C  0.50921293  0.38405611  0.90927203     0.19600
C1810       C  0.50946461  0.40689555  0.88654582     0.24600
C1811       C  0.49860666  0.40063121  0.85661705    -0.23400
C1812       C  0.98900644  0.36984697  0.84864176     0.19500
F1813       F  0.98002391  0.36191044  0.81978402    -0.13300
F1814       F  0.97884183  0.31876548  0.86367429    -0.15700
F1815       F  0.52111581  0.43485817  0.89372582    -0.15700
F1816       F  0.52090869  0.39071887  0.93746502    -0.13300
C1817       C  0.99620108  0.40812015  0.61507848     0.24700
C1818       C  0.50313352  0.39964276  0.64659329    -0.23400
C1819       C  0.50136266  0.36835379  0.65476773     0.19600
C1820       C  0.50096177  0.34553225  0.63228987     0.24600
C1821       C  0.00277275  0.35482046  0.59916767    -0.23400
C1822       C  0.99577124  0.38562682  0.59209924     0.19500
F1823       F  0.98788736  0.39412385  0.56307494    -0.13300
F1824       F  0.98869849  0.43735247  0.60723020    -0.15700
F1825       F  0.49892524  0.31592697  0.64188660    -0.15700
F1826       F  0.49950787  0.35941242  0.68470311    -0.13300
C1827       C  0.00058918  0.15496032  0.63173524     0.24700
C1828       C  0.99811832  0.14723852  0.60027486    -0.23400
C1829       C  0.48620938  0.11610742  0.59347015     0.19600
C1830       C  0.48595642  0.09361100  0.61645522     0.24600
C1831       C  0.99639306  0.10112983  0.64621871    -0.23400
C1832       C  0.99975876  0.13227557  0.65431645     0.19500
F1833       F  0.00268618  0.14110723  0.68418448    -0.13300
F1834       F  0.00408321  0.18452256  0.64103579    -0.15700
F1835       F  0.47125087  0.06670724  0.61098760    -0.15700
F1836       F  0.47254680  0.11003149  0.56606381    -0.13300
O1837       O  0.91534537  0.50048746  0.19897264    -0.74200
O1838       O  0.95312484  0.49935844  0.16268731    -0.53100
C1839       C  0.92480390  0.49950024  0.17086810     0.79500
O1840       O  0.00450976  0.58561091  0.30276516    -0.58800
O1841       O  0.00196701  0.54800693  0.33912594    -0.51800
C1842       C  0.00366759  0.57629177  0.33090147     0.71500
O1843       O  0.99959911  0.58580750  0.19917503    -0.73400
O1844       O  0.49700722  0.54717758  0.16319784    -0.53900
C1845       C  0.99893336  0.57641054  0.17109564     0.77500
O1846       O  0.91589127  0.50088966  0.30286457    -0.58500
O1847       O  0.95110745  0.99983570  0.33768664    -0.51600
C1848       C  0.92502708  0.50130121  0.33102113     0.74100
Zr1849     Zr  0.93655641  0.50152017  0.25087556     2.54700
O1850       O  0.89981604  0.54351227  0.24952255    -0.79100
O1851       O  0.89867303  0.95670938  0.24849488    -0.92500
Zr1852     Zr  0.00113982  0.56468592  0.25094635     2.64700
O1853       O  0.95980113  0.60219142  0.25239383    -0.97500
O1854       O  0.53790689  0.60323458  0.24995761    -0.79500
O1855       O  0.96849489  0.53349142  0.22076065    -0.82900
O1856       O  0.96825617  0.53368829  0.28108603    -2.17600
O1857       O  0.49654038  0.91329888  0.30267362    -0.66300
O1858       O  0.99654828  0.95169810  0.33742684    -0.50800
C1859       C  0.49622620  0.92308171  0.33061590     0.72500
O1860       O  0.58585623  0.99556273  0.19896449    -0.59200
O1861       O  0.54756023  0.50102418  0.16326629    -0.51100
C1862       C  0.57660897  0.99594515  0.17079582     0.74300
O1863       O  0.58493705  0.99784647  0.30305551    -0.70600
O1864       O  0.54712063  0.99919496  0.33917650    -0.49200
C1865       C  0.57546316  0.99879248  0.33112566     0.75700
O1866       O  0.50141153  0.91279864  0.19945294    -0.65900
O1867       O  0.50170104  0.95037789  0.16308978    -0.53100
C1868       C  0.50201449  0.92206933  0.17132784     0.74100
Zr1869     Zr  0.49966063  0.93428265  0.25096920     2.77500
O1870       O  0.54058968  0.89640451  0.25180795    -0.96600
O1871       O  0.96117633  0.89391569  0.25000954    -0.77500
Zr1872     Zr  0.56454110  0.99691563  0.25093200     2.70100
O1873       O  0.60227431  0.95579907  0.25347460    -0.78700
O1874       O  0.60310389  0.53923699  0.24966797    -0.97800
Zr1875     Zr  0.49990654  0.49944642  0.19168037     2.21500
Zr1876     Zr  0.99899734  0.99921345  0.30924105     2.11100
O1877       O  0.53241208  0.96517488  0.28120924    -2.46500
O1878       O  0.53273299  0.96496422  0.22071246    -0.78500
O1879       O  0.96657956  0.96669990  0.27968021    -0.70700
O1880       O  0.53169619  0.53254431  0.22148493    -2.31700
O1881       O  0.96626870  0.96669658  0.21980342    -2.27900
O1882       O  0.53146097  0.53256762  0.28128479    -0.72500
H1883       H  0.95590394  0.54646437  0.29437295     0.79500
H1884       H  0.54415630  0.54544967  0.20836736     0.80600
H1885       H  0.54452651  0.95248676  0.29478356     0.82800
H1886       H  0.95366857  0.95430547  0.20638837     0.80500
H1887       H  0.55683571  0.59245755  0.25626150     0.43500
H1888       H  0.60039608  0.55117291  0.26888785     0.42500
H1889       H  0.59379306  0.93928220  0.24037478     0.42100
H1890       H  0.55214571  0.90073878  0.27091089     0.40100
H1891       H  0.94126235  0.90465568  0.25155946     0.43200
H1892       H  0.90181649  0.94692621  0.22814436     0.38000
H1893       H  0.90885611  0.55859310  0.23504682     0.44100
H1894       H  0.94896639  0.59831936  0.27207348     0.40500
H1895       H  0.53008196  0.87669117  0.25593044     0.45400
H1896       H  0.87836355  0.96665946  0.24693175     0.44200
H1897       H  0.97021237  0.62213134  0.25549664     0.44300
H1898       H  0.62245709  0.52781448  0.25268794     0.44700
O1899       O  0.99678482  0.69917144  0.08630042    -0.74200
O1900       O  0.49936887  0.66188915  0.04790002    -0.53100
C1901       C  0.99779248  0.67110402  0.07703917     0.79500
O1902       O  0.91485427  0.80118501  0.99580217    -0.58800
O1903       O  0.95229308  0.83744631  0.99739921    -0.51800
C1904       C  0.92402955  0.82925745  0.99622124     0.71500
O1905       O  0.91540377  0.69783949  0.99994847    -0.73400
O1906       O  0.95325416  0.66201646  0.00113253    -0.53900
C1907       C  0.92480130  0.66982987  0.00085481     0.77500
O1908       O  0.99581900  0.80300615  0.08516402    -0.58500
O1909       O  0.99843072  0.83851107  0.04657095    -0.51600
C1910       C  0.99670202  0.83082655  0.07510414     0.74100
Zr1911     Zr  0.99797456  0.75084653  0.06475687     2.54700
O1912       O  0.95820128  0.75004939  0.10416736    -0.79100
O1913       O  0.54192963  0.74551819  0.10171566    -0.92500
Zr1914     Zr  0.93639512  0.74962114  0.99794463     2.64700
O1915       O  0.89631920  0.74980991  0.03702513    -0.97500
O1916       O  0.89716317  0.74790134  0.46327445    -0.79500
O1917       O  0.96706543  0.72039764  0.03203706    -0.82900
O1918       O  0.96615872  0.78005127  0.03167488    -2.17600
O1919       O  0.58605738  0.80151516  0.50104348    -0.66300
O1920       O  0.54657236  0.83772861  0.99930422    -0.50800
C1921       C  0.57652723  0.82946683  0.50123866     0.72500
O1922       O  0.50005496  0.69848392  0.41475816    -0.59200
O1923       O  0.50071470  0.66262101  0.45299598    -0.51100
C1924       C  0.50063583  0.67056285  0.42445876     0.74300
O1925       O  0.49554254  0.80147138  0.41485945    -0.70600
O1926       O  0.99846873  0.83760397  0.45210453    -0.49200
C1927       C  0.49565969  0.82934959  0.42456050     0.75700
O1928       O  0.58491401  0.69784182  0.99809752    -0.65900
O1929       O  0.54738318  0.66168767  0.99862667    -0.53100
C1930       C  0.57678917  0.67074798  0.49752357     0.74100
Zr1931     Zr  0.56380985  0.74974058  0.99901995     2.77500
O1932       O  0.59817069  0.75261161  0.45268487    -0.96600
O1933       O  0.60352769  0.74919037  0.03828451    -0.77500
Zr1934     Zr  0.49781142  0.75002059  0.43624374     2.70100
O1935       O  0.53498196  0.75240191  0.39448615    -0.78700
O1936       O  0.95638837  0.74573919  0.40093395    -0.97800
Zr1937     Zr  0.49985848  0.69049368  0.99990389     2.21500
Zr1938     Zr  0.99993840  0.80890669  0.99958491     2.11100
O1939       O  0.53155495  0.78020844  0.46631408    -2.46500
O1940       O  0.53178960  0.72008148  0.46629719    -0.78500
O1941       O  0.53249240  0.77936519  0.03229617    -0.70700
O1942       O  0.96790483  0.72015695  0.46879768    -2.31700
O1943       O  0.53296743  0.71955838  0.03225584    -2.27900
O1944       O  0.96766176  0.77975787  0.46843948    -0.72500
H1945       H  0.95299460  0.79330541  0.04364212     0.79500
H1946       H  0.95520190  0.70679481  0.45644324     0.80600
H1947       H  0.54343440  0.79364766  0.45324424     0.82800
H1948       H  0.54562036  0.70630336  0.04474996     0.80500
H1949       H  0.87777607  0.74941254  0.47502001     0.43500
H1950       H  0.94227856  0.76235961  0.40733728     0.42500
H1951       H  0.55333821  0.74197763  0.40277987     0.42100
H1952       H  0.59564315  0.77362210  0.44435257     0.40100
H1953       H  0.59258654  0.74424997  0.05765644     0.43200
H1954       H  0.53185647  0.74896871  0.12188186     0.38000
H1955       H  0.93900372  0.75416630  0.09282431     0.44100
H1956       H  0.89954798  0.76899504  0.04878983     0.40500
H1957       H  0.61907844  0.75244601  0.46142737     0.45400
H1958       H  0.55433454  0.76422201  0.09825487     0.44200
H1959       H  0.87719448  0.75341141  0.02537061     0.44300
H1960       H  0.96455369  0.75255073  0.38076225     0.44700
O1961       O  0.80244420  0.58406036  0.00122972    -0.74200
O1962       O  0.83826231  0.54625403  0.00261371    -0.53100
C1963       C  0.83039692  0.57473396  0.00190370     0.79500
O1964       O  0.69859755  0.99669333  0.08550732    -0.58800
O1965       O  0.66281344  0.50100223  0.04937717    -0.51800
C1966       C  0.67062266  0.50061103  0.07790165     0.71500
O1967       O  0.80141756  0.00348543  0.08473974    -0.73400
O1968       O  0.83724523  0.00035859  0.04679906    -0.53900
C1969       C  0.82979695  0.49806149  0.07806408     0.77500
O1970       O  0.69891028  0.58494181  0.99958347    -0.58500
O1971       O  0.66303340  0.54717934  0.00052882    -0.51600
C1972       C  0.67091351  0.57561195  0.99954047     0.74100
Zr1973     Zr  0.75057960  0.56342105  0.00154272     2.54700
O1974       O  0.74952522  0.60130691  0.04273784    -0.79100
O1975       O  0.75101444  0.60284819  0.45934204    -0.92500
Zr1976     Zr  0.74990073  0.99955476  0.06392156     2.64700
O1977       O  0.75104402  0.54046298  0.10461152    -0.97500
O1978       O  0.75285780  0.95937329  0.10280932    -0.79500
O1979       O  0.78031080  0.53188640  0.03456333    -0.82900
O1980       O  0.72075542  0.53215344  0.03455775    -2.17600
O1981       O  0.69754970  0.50217302  0.41566149    -0.66300
O1982       O  0.66191960  0.50059189  0.45403724    -0.50800
C1983       C  0.67007223  0.99864799  0.42456545     0.72500
O1984       O  0.80108473  0.91303900  0.99820193    -0.59200
O1985       O  0.83684337  0.95103007  0.99910677    -0.51100
C1986       C  0.83028168  0.92386932  0.50004200     0.74300
O1987       O  0.69753742  0.91358622  0.00068462    -0.70600
O1988       O  0.66187452  0.95171133  0.99973129    -0.49200
C1989       C  0.67087545  0.92310909  0.50282352     0.75700
O1990       O  0.80170009  0.49865253  0.41483822    -0.65900
O1991       O  0.83711493  0.99652976  0.45167407    -0.53100
C1992       C  0.82892418  0.99616601  0.42325574     0.74100
Zr1993     Zr  0.74979550  0.50007652  0.43610860     2.77500
O1994       O  0.74770210  0.95374502  0.39953720    -0.96600
O1995       O  0.75169710  0.53933189  0.39623895    -0.77500
Zr1996     Zr  0.74952050  0.93437595  0.99981669     2.70100
O1997       O  0.74936257  0.89388119  0.46438078    -0.78700
O1998       O  0.75033779  0.89616820  0.04075222    -0.97800
Zr1999     Zr  0.80838607  0.99881294  0.99932837     2.21500
Zr2000     Zr  0.69155240  0.49943359  0.00181503     2.11100
O2001       O  0.72038697  0.96498085  0.46841520    -2.46500
O2002       O  0.77986124  0.96536548  0.46816939    -0.78500
O2003       O  0.72027707  0.53283747  0.46814985    -0.70700
O2004       O  0.77933581  0.96622846  0.03248249    -2.31700
O2005       O  0.77982020  0.53283943  0.46749758    -2.27900
O2006       O  0.72021551  0.96650879  0.03254989    -0.72500
H2007       H  0.70762883  0.54498105  0.04700202     0.79500
H2008       H  0.79254194  0.95378907  0.04523578     0.80600
H2009       H  0.70706297  0.95198903  0.45637548     0.82800
H2010       H  0.79302725  0.54530667  0.45472932     0.80500
H2011       H  0.73872226  0.94324623  0.09538520     0.43500
H2012       H  0.73049013  0.89863721  0.05152348     0.42500
H2013       H  0.76000306  0.90257464  0.44619891     0.42100
H2014       H  0.73024378  0.94104097  0.40654899     0.40100
H2015       H  0.73960739  0.55658735  0.40475801     0.43200
H2016       H  0.76789768  0.59645034  0.44551668     0.38000
H2017       H  0.76604999  0.59488646  0.05692191     0.44100
H2018       H  0.73305293  0.55336385  0.09966236     0.40500
H2019       H  0.74062659  0.96296633  0.37994085     0.45400
H2020       H  0.75856304  0.62182866  0.46930401     0.44200
H2021       H  0.74557339  0.53023535  0.12424903     0.44300
H2022       H  0.74860520  0.87626127  0.02989527     0.44700
C2023       C  0.84724494  0.86903553  0.98688930     0.24700
C2024       C  0.85492383  0.90031470  0.49881191    -0.23400
C2025       C  0.88359619  0.90595875  0.00695388     0.19600
C2026       C  0.90648918  0.88347192  0.00648897     0.24600
C2027       C  0.90012911  0.85357275  0.99587958    -0.23400
C2028       C  0.87020157  0.84676713  0.98593970     0.19500
F2029       F  0.86297163  0.81852186  0.97489817    -0.13300
F2030       F  0.81883334  0.86113331  0.97705435    -0.15700
F2031       F  0.93464000  0.89085966  0.01739831    -0.15700
F2032       F  0.89272427  0.93587966  0.51754035    -0.13300
C2033       C  0.84705488  0.63014095  0.00353135     0.24700
C2034       C  0.85487184  0.59874574  0.00174468    -0.23400
C2035       C  0.88615670  0.59094543  0.99946283     0.19600
C2036       C  0.90881480  0.61379714  0.99924234     0.24600
C2037       C  0.90092551  0.64516431  0.00141897    -0.23400
C2038       C  0.86959632  0.65284421  0.00361471     0.19500
F2039       F  0.86029593  0.68251624  0.00581326    -0.13300
F2040       F  0.81738856  0.63934752  0.00505453    -0.15700
F2041       F  0.93848788  0.60499654  0.99638598    -0.15700
F2042       F  0.89505513  0.56119560  0.99680905    -0.13300
C2043       C  0.61790080  0.90529095  0.48916612     0.24700
C2044       C  0.64630342  0.89962724  0.50331391    -0.23400
C2045       C  0.65129809  0.87091422  0.51729206     0.19600
C2046       C  0.62862557  0.84828802  0.51675484     0.24600
C2047       C  0.60018878  0.85391242  0.50252037    -0.23400
C2048       C  0.59507515  0.88277469  0.48888574     0.19500
F2049       F  0.56394860  0.89128108  0.02114879    -0.13300
F2050       F  0.60826362  0.93467099  0.02214358    -0.15700
F2051       F  0.63450167  0.82094118  0.53056963    -0.15700
F2052       F  0.67806080  0.86476923  0.53190786    -0.13300
C2053       C  0.61842530  0.59618980  0.51483475     0.24700
C2054       C  0.64619200  0.59936102  0.99832361    -0.23400
C2055       C  0.65340449  0.63043657  0.99272813     0.19600
C2056       C  0.63054828  0.65284398  0.99194080     0.24600
C2057       C  0.60031297  0.64623559  0.49745821    -0.23400
C2058       C  0.59573944  0.61891622  0.51417367     0.19500
F2059       F  0.56975571  0.61466337  0.53087720    -0.13300
F2060       F  0.61346854  0.57055080  0.53185606    -0.15700
F2061       F  0.63901913  0.68216758  0.98557794    -0.15700
F2062       F  0.68272199  0.63952777  0.98778176    -0.13300
C2063       C  0.84782484  0.50886974  0.37014514     0.24700
C2064       C  0.85314083  0.99649185  0.39954424    -0.23400
C2065       C  0.88128586  0.98155740  0.40442005     0.19600
C2066       C  0.90422924  0.98266029  0.38188724     0.24600
C2067       C  0.90104700  0.50113408  0.35522851    -0.23400
C2068       C  0.87080838  0.50958273  0.34784649     0.19500
F2069       F  0.86330954  0.51910733  0.31901553    -0.13300
F2070       F  0.81930593  0.51809702  0.36191962    -0.15700
F2071       F  0.93089988  0.96745849  0.38688236    -0.15700
F2072       F  0.88624374  0.96510660  0.43054089    -0.13300
C2073       C  0.61542502  0.98989476  0.40833114     0.24700
C2074       C  0.64546281  0.99929015  0.40107795    -0.23400
C2075       C  0.65064919  0.51463451  0.37239781     0.19600
C2076       C  0.62794834  0.51455037  0.34980922     0.24600
C2077       C  0.59917440  0.99945954  0.35552097    -0.23400
C2078       C  0.59259993  0.98983382  0.38579511     0.19500
F2079       F  0.56424599  0.97973183  0.39359910    -0.13300
F2080       F  0.60803491  0.98034402  0.43714362    -0.15700
F2081       F  0.63478979  0.52649678  0.32171387    -0.15700
F2082       F  0.67834734  0.52683031  0.36519383    -0.13300
C2083       C  0.62985630  0.51023015  0.15449582     0.24700
C2084       C  0.60034490  0.99526196  0.14617048    -0.23400
C2085       C  0.59336255  0.00385062  0.11562695     0.19600
C2086       C  0.61598187  0.00364459  0.09275984     0.24600
C2087       C  0.64598126  0.50141435  0.10147802    -0.23400
C2088       C  0.65255249  0.51054952  0.13188166     0.19500
F2089       F  0.68084070  0.52071071  0.13978863    -0.13300
F2090       F  0.63751963  0.51927266  0.18341640    -0.15700
F2091       F  0.60822126  0.01256900  0.06381495    -0.15700
F2092       F  0.56478531  0.01318093  0.10780133    -0.13300
C2093       C  0.87273532  0.48411863  0.15257871     0.24700
C2094       C  0.90114934  0.49814760  0.14649937    -0.23400
C2095       C  0.90629572  0.51124920  0.11728397     0.19600
C2096       C  0.88322915  0.51100606  0.09494725     0.24600
C2097       C  0.85462967  0.49740847  0.10126318    -0.23400
C2098       C  0.84985281  0.48356077  0.13018769     0.19500
F2099       F  0.82313379  0.46902908  0.13678859    -0.13300
F2100       F  0.86709492  0.47054877  0.18019516    -0.15700
F2101       F  0.88852565  0.52518989  0.06756817    -0.15700
F2102       F  0.93316821  0.52549706  0.11071866    -0.13300
C2103       C  0.01298193  0.61571829  0.40844875     0.24700
C2104       C  0.50104754  0.64592985  0.40098047    -0.23400
C2105       C  0.51292653  0.65159006  0.37133634     0.19000
C2106       C  0.51254350  0.62868529  0.34888867     0.24600
C2107       C  0.00415064  0.60007028  0.35527346    -0.23400
C2108       C  0.01286030  0.59295615  0.38571425     0.19500
F2109       F  0.02147387  0.56404087  0.39357697    -0.13300
F2110       F  0.02205103  0.60807138  0.43735990    -0.15700
F2111       F  0.52450326  0.63518853  0.32071313    -0.15700
F2112       F  0.52579934  0.67907031  0.36417264    -0.13300
C2113       C  0.98359615  0.84773231  0.37040549     0.24700
C2114       C  0.49419922  0.85389807  0.40114121    -0.23400
C2115       C  0.50595529  0.88328073  0.40748876     0.19600
C2116       C  0.50595341  0.90600846  0.38485172     0.24600
C2117       C  0.49441242  0.89978718  0.35527128    -0.23400
C2118       C  0.98357196  0.87028042  0.34760647     0.19500
F2119       F  0.97278562  0.86284606  0.31924450    -0.13300
F2120       F  0.97237302  0.81957781  0.36323437    -0.15700
F2121       F  0.51816322  0.93380288  0.39173523    -0.15700
F2122       F  0.51838896  0.88987541  0.43532856    -0.13300
C2123       C  0.01404643  0.90471788  0.11753018     0.24700
C2124       C  0.50301365  0.89836351  0.14687769    -0.23400
C2125       C  0.50741344  0.86722653  0.15453250     0.19600
C2126       C  0.50754274  0.84477718  0.13173242     0.24600
C2127       C  0.99581243  0.85557840  0.09824741    -0.23400
C2128       C  0.01368918  0.88220443  0.09454673     0.19500
F2129       F  0.03201609  0.88569999  0.06946180    -0.13300
F2130       F  0.03241431  0.92960704  0.11394527    -0.15700
F2131       F  0.51118210  0.81511205  0.14068627    -0.15700
F2132       F  0.51142799  0.85810053  0.18419816    -0.13300
C2133       C  0.98877233  0.65340520  0.13134541     0.24700
C2134       C  0.99727283  0.64659964  0.10079017    -0.23400
C2135       C  0.50667029  0.61524006  0.09370423     0.19600
C2136       C  0.50620630  0.59250258  0.11650857     0.24600
C2137       C  0.99780778  0.60029299  0.14666745    -0.23400
C2138       C  0.98933706  0.63070464  0.15399446     0.19500
F2139       F  0.98129315  0.63875168  0.18314234    -0.13300
F2140       F  0.97957535  0.68206191  0.13953805    -0.15700
F2141       F  0.51743370  0.56428204  0.10949090    -0.15700
F2142       F  0.51849026  0.60812940  0.06563729    -0.13300
O2143       O  0.91497714  0.49669659  0.69842808    -0.74200
O2144       O  0.95294652  0.49762577  0.66239325    -0.53100
C2145       C  0.92458013  0.49675665  0.67035269     0.79500
O2146       O  0.99758892  0.58467196  0.80266126    -0.58800
O2147       O  0.99814841  0.54672581  0.83873498    -0.51800
C2148       C  0.99782779  0.57512634  0.83074750     0.71500
O2149       O  0.99556175  0.58527639  0.69902990    -0.73400
O2150       O  0.50256272  0.54689440  0.66272014    -0.53900
C2151       C  0.99681231  0.57608755  0.67087558     0.77500
O2152       O  0.91414516  0.49500351  0.80246084    -0.58500
O2153       O  0.95245177  0.99649473  0.83794598    -0.51600
C2154       C  0.92367138  0.49559678  0.83054005     0.74100
Zr2155     Zr  0.93569702  0.49644593  0.75051004     2.54700
O2156       O  0.89455500  0.53412926  0.75057246    -0.79100
O2157       O  0.90193758  0.95214512  0.74747070    -0.92500
Zr2158     Zr  0.99654442  0.56355421  0.75072871     2.64700
O2159       O  0.95441362  0.60014779  0.75222801    -0.97500
O2160       O  0.53413376  0.60652142  0.75029009    -0.79500
O2161       O  0.96575602  0.53056860  0.72045013    -0.82900
O2162       O  0.96539520  0.53050098  0.78067396    -2.17600
O2163       O  0.49733205  0.91548941  0.80236097    -0.66300
O2164       O  0.00194904  0.95258323  0.83754209    -0.50800
C2165       C  0.49798786  0.92491695  0.83046121     0.72500
O2166       O  0.58558510  0.00088079  0.69849163    -0.59200
O2167       O  0.54945769  0.49839549  0.66414117    -0.51100
C2168       C  0.57637007  0.00006027  0.67037495     0.74300
O2169       O  0.58507582  0.00311273  0.80170752    -0.70600
O2170       O  0.54748638  0.00138623  0.83803185    -0.49200
C2171       C  0.57578698  0.00252079  0.82984550     0.75700
O2172       O  0.50139966  0.91524949  0.69880482    -0.65900
O2173       O  0.50083435  0.95284196  0.66245394    -0.53100
C2174       C  0.50130057  0.92451357  0.67065151     0.74100
Zr2175     Zr  0.50036901  0.93664223  0.75048306     2.77500
O2176       O  0.54156905  0.89905188  0.75058465    -0.96600
O2177       O  0.96951180  0.89374580  0.74734166    -0.77500
Zr2178     Zr  0.56379361  0.00185090  0.75006102     2.70100
O2179       O  0.60519998  0.96458045  0.75079982    -0.78700
O2180       O  0.60030314  0.54497784  0.75083994    -0.97800
Zr2181     Zr  0.50150007  0.49940185  0.69182165     2.21500
Zr2182     Zr  0.99968237  0.00045372  0.80910843     2.11100
O2183       O  0.53284278  0.96851945  0.78011765    -2.46500
O2184       O  0.53295732  0.96826561  0.72047345    -0.78500
O2185       O  0.96951749  0.96585154  0.77952511    -0.70700
O2186       O  0.53277865  0.53312740  0.72131744    -2.31700
O2187       O  0.96979753  0.96634726  0.71943769    -2.27900
O2188       O  0.53205259  0.53354640  0.78123358    -0.72500
H2189       H  0.95225787  0.54249068  0.79394645     0.79500
H2190       H  0.54527813  0.54599205  0.70820738     0.80600
H2191       H  0.54551190  0.95606718  0.79338347     0.82800
H2192       H  0.95817664  0.95309898  0.70596417     0.80500
H2193       H  0.55428929  0.59710583  0.74589241     0.43500
H2194       H  0.59382017  0.55806644  0.76832383     0.42500
H2195       H  0.59497370  0.94462523  0.74725072     0.42100
H2196       H  0.55239542  0.90236660  0.77031632     0.40100
H2197       H  0.94921243  0.90276324  0.75193977     0.43200
H2198       H  0.90526879  0.94311476  0.72680163     0.38000
H2199       H  0.90464002  0.55364417  0.74474497     0.44100
H2200       H  0.94554230  0.59816516  0.77315042     0.40500
H2201       H  0.53109551  0.87906245  0.75316953     0.45400
H2202       H  0.88113627  0.96110767  0.74647387     0.44200
H2203       H  0.96451248  0.62049454  0.75223031     0.44300
H2204       H  0.62012907  0.53616714  0.75741701     0.44700
O2205       O  0.00022880  0.69937255  0.58697640    -0.74200
O2206       O  0.50174645  0.66258281  0.54870019    -0.53100
C2207       C  0.99911895  0.67138242  0.57744785     0.79500
O2208       O  0.91542525  0.80170963  0.49887714    -0.58800
O2209       O  0.95312719  0.83776384  0.49956594    -0.51800
C2210       C  0.92479337  0.82976677  0.49866664     0.71500
O2211       O  0.91568453  0.69846022  0.50326607    -0.73400
O2212       O  0.95338455  0.66242566  0.50178807    -0.53900
C2213       C  0.92499130  0.67042056  0.50278137     0.77500
O2214       O  0.00491072  0.80285690  0.58550457    -0.58500
O2215       O  0.00255569  0.83849733  0.54722570    -0.51600
C2216       C  0.00441545  0.83077946  0.57575222     0.74100
Zr2217     Zr  0.00296534  0.75085527  0.56485593     2.54700
O2218       O  0.96521398  0.75385972  0.60600005    -0.79100
O2219       O  0.54651248  0.75070794  0.60018004    -0.92500
Zr2220     Zr  0.93705189  0.75008977  0.50225624     2.64700
O2221       O  0.90143428  0.75044593  0.54551995    -0.97500
O2222       O  0.89976020  0.74884803  0.95577198    -0.79500
O2223       O  0.96958132  0.72067285  0.53438276    -0.82900
O2224       O  0.96920947  0.78032955  0.53398914    -2.17600
O2225       O  0.58440507  0.80173768  0.00061351    -0.66300
O2226       O  0.54813693  0.83747092  0.50034045    -0.50800
C2227       C  0.57491692  0.82972893  0.99992259     0.72500
O2228       O  0.49904894  0.69830469  0.91413876    -0.59200
O2229       O  0.49926089  0.66207942  0.95207708    -0.51100
C2230       C  0.49899506  0.67027522  0.92362020     0.74300
O2231       O  0.49808036  0.80169241  0.91393254    -0.70600
O2232       O  0.00259627  0.83676191  0.95153348    -0.49200
C2233       C  0.49773850  0.82958773  0.92374060     0.75700
O2234       O  0.58626964  0.69869597  0.49610833    -0.65900
O2235       O  0.54849990  0.66272864  0.49939891    -0.53100
C2236       C  0.57571005  0.66973371  0.99800190     0.74100
Zr2237     Zr  0.56446463  0.75017833  0.49745839     2.77500
O2238       O  0.60146408  0.75028880  0.95749100    -0.96600
O2239       O  0.60668191  0.74831051  0.53387373    -0.77500
Zr2240     Zr  0.49889973  0.75000730  0.93556446     2.70100
O2241       O  0.54020420  0.75155517  0.89788342    -0.78700
O2242       O  0.96381193  0.74698140  0.89596920    -0.97800
Zr2243     Zr  0.50073765  0.69110362  0.50076548     2.21500
Zr2244     Zr  0.00084269  0.80929524  0.49992891     2.11100
O2245       O  0.53172225  0.77976045  0.96691952    -2.46500
O2246       O  0.53189437  0.71995050  0.96664411    -0.78500
O2247       O  0.53408602  0.77972644  0.53171936    -0.70700
O2248       O  0.96929894  0.71955927  0.96675343    -2.31700
O2249       O  0.53446133  0.72050967  0.53201540    -2.27900
O2250       O  0.96890406  0.77926542  0.96584067    -0.72500
H2251       H  0.95696700  0.79366698  0.54681806     0.79500
H2252       H  0.95711635  0.70615849  0.95392699     0.80600
H2253       H  0.54401472  0.79313116  0.95416181     0.82800
H2254       H  0.54751224  0.70734338  0.54418602     0.80500
H2255       H  0.91030563  0.75958045  0.93866724     0.43500
H2256       H  0.95252916  0.76660657  0.89785513     0.42500
H2257       H  0.55546474  0.73668158  0.90571117     0.42100
H2258       H  0.59421488  0.76627407  0.94301662     0.40100
H2259       H  0.60128655  0.73156706  0.54833886     0.43200
H2260       H  0.53950418  0.76280954  0.61817114     0.38000
H2261       H  0.94710561  0.74302491  0.59771105     0.44100
H2262       H  0.90305795  0.77131328  0.55438525     0.40500
H2263       H  0.62012113  0.75913137  0.96685997     0.45400
H2264       H  0.56177346  0.76404083  0.58986866     0.44200
H2265       H  0.88090977  0.74988965  0.53592617     0.44300
H2266       H  0.97529121  0.74883461  0.87636392     0.44700
O2267       O  0.80203735  0.58597113  0.50128615    -0.74200
O2268       O  0.83778377  0.54795055  0.50117421    -0.53100
C2269       C  0.82995329  0.57646069  0.50145033     0.79500
O2270       O  0.69875450  0.00102357  0.58517907    -0.58800
O2271       O  0.66283038  0.49927368  0.54905688    -0.51800
C2272       C  0.67105091  0.49886898  0.57745948     0.71500
O2273       O  0.80245756  0.00223332  0.58538437    -0.73400
O2274       O  0.83816984  0.00110451  0.54698785    -0.53900
C2275       C  0.83031300  0.49801483  0.57640235     0.77500
O2276       O  0.69867398  0.58611117  0.49892060    -0.58500
O2277       O  0.66273011  0.54823811  0.50180208    -0.51600
C2278       C  0.67074770  0.57664947  0.50003406     0.74100
Zr2279     Zr  0.75035412  0.56470909  0.50041789     2.54700
O2280       O  0.74987719  0.60425112  0.54012937    -0.79100
O2281       O  0.75033688  0.60387195  0.96283328    -0.92500
Zr2282     Zr  0.75061673  0.00203415  0.56439072     2.64700
O2283       O  0.75123914  0.54321510  0.60154048    -0.97500
O2284       O  0.75109711  0.96576754  0.60710503    -0.79500
O2285       O  0.78048593  0.53322221  0.53319238    -0.82900
O2286       O  0.72069402  0.53314581  0.53353630    -2.17600
O2287       O  0.69861909  0.50028196  0.91615642    -0.66300
O2288       O  0.66274061  0.49986986  0.95425984    -0.50800
C2289       C  0.67043242  0.00078077  0.92343250     0.72500
O2290       O  0.80236755  0.91430621  0.50046239    -0.59200
O2291       O  0.83811675  0.95229796  0.50043848    -0.51100
C2292       C  0.82897476  0.92258250  0.99828119     0.74300
O2293       O  0.69875580  0.91352297  0.50344230    -0.70600
O2294       O  0.66296590  0.95151480  0.50155168    -0.49200
C2295       C  0.66964289  0.92323383  0.00032086     0.75700
O2296       O  0.80220071  0.49643161  0.91581262    -0.65900
O2297       O  0.83690464  0.99738323  0.95162454    -0.53100
C2298       C  0.82918014  0.99521340  0.92315448     0.74100
Zr2299     Zr  0.75045033  0.49899710  0.93706571     2.77500
O2300       O  0.74840478  0.95874108  0.89489296    -0.96600
O2301       O  0.75076157  0.54121000  0.90023049    -0.77500
Zr2302     Zr  0.75039066  0.93490660  0.50240636     2.70100
O2303       O  0.74895378  0.89533457  0.95960453    -0.78700
O2304       O  0.75116725  0.89837180  0.54487604    -0.97800
Zr2305     Zr  0.80892279  0.99941017  0.49956302     2.21500
Zr2306     Zr  0.69119944  0.50019201  0.50125874     2.11100
O2307       O  0.71986797  0.96575981  0.96673831    -2.46500
O2308       O  0.77942459  0.96576789  0.96685285    -0.78500
O2309       O  0.72086024  0.53179782  0.96885012    -0.70700
O2310       O  0.78006284  0.96784581  0.53384999    -2.31700
O2311       O  0.78032011  0.53162289  0.96865755    -2.27900
O2312       O  0.72091919  0.96790404  0.53413865    -0.72500
H2313       H  0.70754511  0.54573541  0.54618923     0.79500
H2314       H  0.79332586  0.95568226  0.54680561     0.80600
H2315       H  0.70654929  0.95318989  0.95423675     0.82800
H2316       H  0.79364533  0.54401355  0.95593535     0.80500
H2317       H  0.76363071  0.94835124  0.59961447     0.43500
H2318       H  0.73478121  0.90547596  0.55897045     0.42500
H2319       H  0.76386776  0.90270397  0.94405764     0.42100
H2320       H  0.72982631  0.94651805  0.89940399     0.40100
H2321       H  0.74589374  0.55960779  0.91269639     0.43200
H2322       H  0.76884750  0.60011764  0.95019562     0.38000
H2323       H  0.73368645  0.59781624  0.55475503     0.44100
H2324       H  0.73155359  0.55398821  0.59829944     0.40500
H2325       H  0.74346626  0.97000666  0.87570638     0.45400
H2326       H  0.75500336  0.62283076  0.97448999     0.44200
H2327       H  0.74906166  0.53336724  0.62199517     0.44300
H2328       H  0.74314242  0.87908734  0.53593113     0.44700
C2329       C  0.84833243  0.87031662  0.48871439     0.24700
C2330       C  0.85358649  0.89900119  0.99733025    -0.23400
C2331       C  0.88518645  0.90732034  0.50757006     0.19600
C2332       C  0.90799515  0.88470125  0.50693650     0.24600
C2333       C  0.90112350  0.85441500  0.49772012    -0.23400
C2334       C  0.87099864  0.84771663  0.48828901     0.19500
F2335       F  0.86325122  0.81924153  0.47827917    -0.13300
F2336       F  0.81990715  0.86272395  0.47868594    -0.15700
F2337       F  0.93660791  0.89241078  0.51627421    -0.15700
F2338       F  0.89078067  0.93432633  0.01767132    -0.13300
C2339       C  0.84787514  0.63053064  0.51121965     0.24700
C2340       C  0.85456481  0.60020434  0.50205897    -0.23400
C2341       C  0.88482347  0.59316369  0.49312426     0.19600
C2342       C  0.90778111  0.61565946  0.49384543     0.24600
C2343       C  0.90104341  0.64596633  0.50308002    -0.23400
C2344       C  0.87066341  0.65300927  0.51167131     0.19500
F2345       F  0.86267341  0.68178065  0.52067950    -0.13300
F2346       F  0.81913664  0.63874040  0.51990533    -0.15700
F2347       F  0.93639304  0.60785187  0.48443512    -0.15700
F2348       F  0.89212790  0.56476905  0.48251237    -0.13300
C2349       C  0.61517755  0.90647177  0.01076448     0.24700
C2350       C  0.64497771  0.89969361  0.00013587    -0.23400
C2351       C  0.65104972  0.86998824  0.98885984     0.19600
C2352       C  0.62819276  0.84765509  0.98841949     0.24600
C2353       C  0.59860789  0.85415667  0.99957088    -0.23400
C2354       C  0.59223988  0.88396503  0.01040380     0.19500
F2355       F  0.56843719  0.88887727  0.47411479    -0.13300
F2356       F  0.61255732  0.93222536  0.47448245    -0.15700
F2357       F  0.63493485  0.81983833  0.97602942    -0.15700
F2358       F  0.67899707  0.86257629  0.97730650    -0.13300
C2359       C  0.61513019  0.59147807  0.00279370     0.24700
C2360       C  0.64629357  0.60037045  0.49900646    -0.23400
C2361       C  0.65077092  0.62773370  0.48225380     0.19600
C2362       C  0.62804319  0.65033866  0.48143392     0.24600
C2363       C  0.59963272  0.64520326  0.99735019    -0.23400
C2364       C  0.59223187  0.61406644  0.00250052     0.19500
F2365       F  0.56286656  0.60526236  0.00774421    -0.13300
F2366       F  0.60668904  0.56191955  0.00798580    -0.15700
F2367       F  0.63296757  0.67603005  0.46437085    -0.15700
F2368       F  0.67691252  0.63236580  0.46592956    -0.13300
C2369       C  0.84926917  0.48084333  0.87320389     0.24700
C2370       C  0.85397215  0.99372349  0.89976374    -0.23400
C2371       C  0.88382334  0.00376272  0.90682643     0.19600
C2372       C  0.90680414  0.00347750  0.88437522     0.24600
C2373       C  0.90029066  0.49480019  0.85534200    -0.23400
C2374       C  0.87183531  0.48053734  0.85034953     0.19500
F2375       F  0.86592140  0.46574663  0.82346991    -0.13300
F2376       F  0.82226953  0.46654469  0.86745850    -0.15700
F2377       F  0.93485859  0.01451008  0.89195984    -0.15700
F2378       F  0.89071856  0.01494218  0.93518574    -0.13300
C2379       C  0.61551536  0.99379375  0.90732872     0.24700
C2380       C  0.64582974  0.00210599  0.89995514    -0.23400
C2381       C  0.65284286  0.51094405  0.87173055     0.19600
C2382       C  0.63010391  0.51160624  0.84922777     0.24600
C2383       C  0.59960787  0.00294729  0.85424309    -0.23400
C2384       C  0.59275130  0.99400094  0.88471148     0.19500
F2385       F  0.56415704  0.98473058  0.89266509    -0.13300
F2386       F  0.60783184  0.98486559  0.93632177    -0.15700
F2387       F  0.63789554  0.52152210  0.82058238    -0.15700
F2388       F  0.68146945  0.52012480  0.86368934    -0.13300
C2389       C  0.63110030  0.48798881  0.65434588     0.24700
C2390       C  0.60026515  0.99967454  0.64583056    -0.23400
C2391       C  0.59277873  0.00527902  0.61472290     0.19600
C2392       C  0.61553161  0.00542047  0.59195776     0.24600
C2393       C  0.64673008  0.49800187  0.60137100    -0.23400
C2394       C  0.65348691  0.48773763  0.63138779     0.19500
F2395       F  0.68173160  0.47692939  0.63859920    -0.13300
F2396       F  0.63873720  0.47780641  0.68290896    -0.15700
F2397       F  0.60725598  0.01179959  0.56248540    -0.15700
F2398       F  0.56348795  0.01118132  0.60618176    -0.13300
C2399       C  0.87138466  0.48488484  0.65217669     0.24700
C2400       C  0.90108697  0.49575516  0.64568704    -0.23400
C2401       C  0.90777833  0.50593325  0.61558118     0.19600
C2402       C  0.88498056  0.50645981  0.59295428     0.24600
C2403       C  0.85504726  0.49641235  0.59978470    -0.23400
C2404       C  0.84880521  0.48497295  0.62949294     0.19500
F2405       F  0.82087536  0.47325811  0.63662531    -0.13300
F2406       F  0.86408169  0.47363596  0.68045082    -0.15700
F2407       F  0.89212348  0.51765940  0.56462604    -0.15700
F2408       F  0.93618029  0.51622157  0.60812044    -0.13300
C2409       C  0.00932664  0.61426172  0.90819180     0.24700
C2410       C  0.49866773  0.64588188  0.89990657    -0.23400
C2411       C  0.51151978  0.65146681  0.87069130     0.19000
C2412       C  0.51153039  0.62869613  0.84818058     0.24600
C2413       C  0.99798386  0.59866502  0.85543095    -0.23400
C2414       C  0.00803974  0.59152248  0.88546606     0.19500
F2415       F  0.01719391  0.56265640  0.89288062    -0.13300
F2416       F  0.01967235  0.60652341  0.93664435    -0.15700
F2417       F  0.52511535  0.63487739  0.82068157    -0.15700
F2418       F  0.52496715  0.67878485  0.86404106    -0.13300
C2419       C  0.00688626  0.84600780  0.86789232     0.24700
C2420       C  0.49708955  0.85439588  0.90032606    -0.23400
C2421       C  0.50932530  0.88359954  0.90680968     0.19600
C2422       C  0.50936154  0.90665504  0.88432996     0.24600
C2423       C  0.49685233  0.90115119  0.85495623    -0.23400
C2424       C  0.00656269  0.86889783  0.84541299     0.19500
F2425       F  0.01037557  0.86020160  0.81560287    -0.13300
F2426       F  0.01117361  0.81655585  0.85857452    -0.15700
F2427       F  0.52248996  0.93404643  0.89113751    -0.15700
F2428       F  0.52219303  0.88964550  0.93460996    -0.13300
C2429       C  0.99701200  0.90867867  0.61472802     0.24700
C2430       C  0.50169459  0.90073470  0.64617690    -0.23400
C2431       C  0.49638603  0.86971121  0.65368090     0.19600
C2432       C  0.49732743  0.84711789  0.63105787     0.24600
C2433       C  0.00598025  0.85558886  0.59919145    -0.23400
C2434       C  0.99670837  0.88580341  0.59213079     0.19500
F2435       F  0.98653815  0.89326187  0.56355220    -0.13300
F2436       F  0.98699784  0.93718852  0.60706580    -0.15700
F2437       F  0.49165760  0.81770455  0.63974535    -0.15700
F2438       F  0.48945313  0.86094433  0.68291594    -0.13300
C2439       C  0.98462931  0.65242204  0.63008687     0.24700
C2440       C  0.99757165  0.64674364  0.60093498    -0.23400
C2441       C  0.49253532  0.61573865  0.59374483     0.19600
C2442       C  0.49235118  0.59277043  0.61631614     0.24600
C2443       C  0.99654064  0.60015376  0.64652470    -0.23400
C2444       C  0.98438206  0.62955281  0.65269241     0.19500
F2445       F  0.97195937  0.63630749  0.68059033    -0.13300
F2446       F  0.97144103  0.67992462  0.63656403    -0.15700
F2447       F  0.48128641  0.56460754  0.60887204    -0.15700
F2448       F  0.48222543  0.60866543  0.56512561    -0.13300
loop_ 
_geom_bond_atom_site_label_1 
_geom_bond_atom_site_label_2 
_geom_bond_distance 
_geom_bond_site_symmetry_2 
_ccdc_geom_bond_type 
O1          Zr13   2.430       .  S
O1            C3   1.286       .  A
O2        Zr1263   2.433       .  S
O2            C3   1.288       .  A
C3          C258   1.494       .  S
O4          Zr16   2.432       .  S
O4            C6   1.287       .  A
O5         Zr652   2.412   1_545  S
O5            C6   1.284       .  A
C6          C271   1.479       .  S
O7          Zr16   2.432       .  S
O7            C9   1.287       .  A
O8          Zr39   2.413   1_545  S
O8         C1233   1.285       .  A
C9         O1232   1.286       .  A
C9          C301   1.481       .  S
O10         Zr13   2.432       .  S
O10          C12   1.287       .  A
O11         Zr40   2.418       .  S
O11         C624   1.286       .  A
C12         O623   1.286       .  A
C12         C231   1.481       .  S
Zr13         O14   2.434   1_565  S
Zr13        O627   2.433       .  S
Zr13         O19   2.369   1_565  S
Zr13         O20   2.365   1_565  S
Zr13        O655   2.365       .  S
Zr13        O657   2.367       .  S
O14          H57   0.990       .  S
O15        Zr625   2.431       .  S
O15          H56   0.990       .  S
O15          H60   0.990       .  S
Zr16         O17   2.436       .  S
Zr16       O1242   2.433       .  S
Zr16         O20   2.364       .  S
Zr16         O19   2.367       .  S
Zr16       O1268   2.366       .  S
Zr16       O1270   2.371       .  S
O17          H58   0.990       .  S
O17          H61   0.990       .  S
O18       Zr1240   2.435   1_455  S
O18          H51   0.990       .  S
O19       Zr1263   2.376   1_545  S
O20        Zr652   2.379   1_545  S
O20          H47   0.965       .  S
O21         Zr33   2.426       .  S
O21          C23   1.285       .  A
O22         Zr40   2.420       .  S
O22        C1247   1.286       .  A
C23        O1246   1.287       .  A
C23         C281   1.478       .  S
O24         Zr36   2.425       .  S
O24          C26   1.285       .  A
O25         Zr39   2.428   1_455  S
O25         C638   1.287       .  A
C26         O637   1.286       .  A
C26         C248   1.483       .  S
O27         Zr36   2.435       .  S
O27          C29   1.287       .  A
O28       Zr1264   2.424       .  S
O28          C29   1.286       .  A
C29         C241   1.491       .  S
O30         Zr33   2.427       .  S
O30          C32   1.286   1_655  A
O31        Zr651   2.429       .  S
O31          C32   1.288       .  A
C32         C288   1.486   1_455  S
Zr33         O34   2.434   1_655  S
Zr33       O1259   2.436       .  S
Zr33         O41   2.369   1_655  S
Zr33         O42   2.369   1_655  S
Zr33       O1269   2.365       .  S
Zr33       O1267   2.366       .  S
O34          H54   0.990       .  S
O34          H59   0.990       .  S
O35       Zr1257   2.433       .  S
O35          H55   0.990       .  S
Zr36         O37   2.433       .  S
Zr36        O650   2.437       .  S
Zr36         O42   2.372       .  S
Zr36         O41   2.368       .  S
Zr36        O658   2.363       .  S
Zr36        O656   2.370       .  S
O37          H53   0.990       .  S
O38        Zr648   2.434   1_545  S
O38          H52   0.990       .  S
O38          H62   0.990       .  S
Zr39       O1226   2.428   1_565  S
Zr39        O643   2.418       .  S
Zr39         O44   2.382   1_665  S
Zr39       O1243   2.379   1_565  S
Zr39        O654   2.380   1_655  S
Zr39       O1881   2.380       .  S
Zr40        O617   2.422       .  S
Zr40       O1252   2.426       .  S
Zr40         O43   2.379       .  S
Zr40        O632   2.385       .  S
Zr40       O1265   2.380       .  S
Zr40       O1882   2.379       .  S
O41       Zr1264   2.381       .  S
O41          H49   0.966       .  S
O42        Zr651   2.381       .  S
O43        Zr625   2.369       .  S
O43       Zr1257   2.366       .  S
O44       Zr1240   2.368   1_455  S
O44        Zr648   2.368   1_545  S
O44          H48   0.967       .  S
O45        Zr625   2.365       .  S
O45       Zr1257   2.364       .  S
O45       Zr1875   2.379       .  S
O45          H50   0.967       .  S
O46       Zr1240   2.368   1_455  S
O46        Zr648   2.369   1_545  S
O46       Zr1876   2.378   1_445  S
O63         Zr75   2.437       .  S
O63          C65   1.288       .  A
O64        Zr101   2.411       .  S
O64        C1289   1.284       .  A
C65        O1288   1.285       .  A
C65         C298   1.483       .  S
O66         Zr78   2.435   1_556  S
O66          C68   1.287   1_556  A
O67        Zr102   2.429       .  S
O67          C68   1.287       .  A
C68         C191   1.489   1_554  S
O69         Zr78   2.433       .  S
O69          C71   1.287       .  A
O70       Zr1325   2.424       .  S
O70          C71   1.286       .  A
C71         C201   1.486       .  S
O72         Zr75   2.442       .  S
O72          C74   1.288       .  A
O73        Zr102   2.416       .  S
O73          C74   1.285       .  A
C74         C291   1.484       .  S
Zr75         O76   2.434       .  S
Zr75       O1301   2.435       .  S
Zr75         O81   2.371       .  S
Zr75         O82   2.367       .  S
Zr75       O1329   2.369       .  S
Zr75       O1331   2.366       .  S
O76         H119   0.990       .  S
O77       Zr1299   2.435       .  S
O77         H118   0.990       .  S
O77         H122   0.990       .  S
Zr78         O79   2.437       .  S
Zr78        O386   2.432   1_554  S
Zr78         O82   2.369       .  S
Zr78         O81   2.370       .  S
Zr78        O412   2.368   1_554  S
Zr78        O414   2.370   1_554  S
O79         H120   0.990       .  S
O79         H123   0.990       .  S
O80        Zr384   2.432       .  S
O80         H113   0.990       .  S
O81       Zr1325   2.384       .  S
O82        Zr102   2.384       .  S
O82         H109   0.966       .  S
O83        Zr401   2.441       .  S
O83          C85   1.288       .  A
O84       Zr1326   2.428   1_455  S
O84         C391   1.288       .  A
C85         O390   1.288       .  A
C85         C211   1.495       .  S
O86         Zr98   2.442   1_455  S
O86          C88   1.289       .  A
O87        Zr407   2.413       .  S
O87          C88   1.284   1_655  A
C88         C268   1.482       .  S
O89         Zr98   2.436       .  S
O89          C91   1.288       .  A
O90        Zr408   2.412       .  S
O90        C1315   1.285       .  A
C91        O1314   1.283   1_655  A
C91         C278   1.474       .  S
O92         Zr95   2.442       .  S
O92         C400   1.289       .  A
O93        Zr101   2.425   1_455  S
O93         C400   1.287       .  A
C94         O398   1.288       .  A
C94         O399   1.287       .  A
C94         C221   1.492       .  S
Zr95        O389   2.450       .  S
Zr95         O97   2.434       .  S
Zr95        O402   2.433   1_554  S
Zr95        O107   2.369       .  S
Zr95        O105   2.370       .  S
Zr95        O409   2.370   1_554  S
Zr95        O410   2.373   1_554  S
O96        Zr401   2.438       .  S
O96         H116   0.990       .  S
O96         H121   0.990       .  S
O97         H117   0.990       .  S
Zr98         O99   2.432   1_655  S
Zr98       O1324   2.432       .  S
Zr98        O104   2.364   1_655  S
Zr98        O103   2.370   1_655  S
Zr98       O1332   2.370       .  S
Zr98       O1330   2.367       .  S
O99         H115   0.990       .  S
O100      Zr1322   2.434       .  S
O100        H114   0.990       .  S
O100        H124   0.990       .  S
Zr101      O1294   2.431       .  S
Zr101       O393   2.419   1_654  S
Zr101       O107   2.385   1_655  S
Zr101      O1305   2.379       .  S
Zr101       O410   2.382   1_654  S
Zr101      O1636   2.382   1_554  S
Zr102      O1308   2.423       .  S
Zr102       O396   2.412   1_554  S
Zr102      O1633   2.387   1_554  S
Zr102      O1329   2.381       .  S
Zr102       O414   2.381   1_554  S
O103       Zr401   2.364       .  S
O103      Zr1632   2.385   1_455  S
O103        H111   0.966       .  S
O104       Zr401   2.370       .  S
O104       Zr407   2.379   1_455  S
O105      Zr1299   2.366       .  S
O105      Zr1326   2.381   1_455  S
O106       Zr384   2.368       .  S
O106      Zr1322   2.368       .  S
O106      Zr1631   2.381       .  S
O106        H110   0.968       .  S
O107      Zr1299   2.365       .  S
O107        H112   0.966       .  S
O108       Zr384   2.369       .  S
O108      Zr1322   2.373       .  S
O108       Zr408   2.380       .  S
O125       Zr137   2.434       .  S
O125        C127   1.287       .  A
O126       Zr775   2.424   1_544  S
O126        C127   1.286       .  A
C127        C198   1.485       .  S
O128       Zr140   2.442       .  S
O128        C742   1.289       .  A
O129       Zr164   2.417       .  S
O129        C130   1.285   1_545  A
C130        O740   1.288       .  A
C130        C251   1.488       .  S
O131       Zr140   2.443       .  S
O131        C745   1.290       .  A
O132       Zr163   2.418       .  S
O132        C745   1.285       .  A
C133        O743   1.288       .  A
C133        O744   1.286       .  A
C133        C261   1.494       .  S
O134       Zr137   2.440       .  S
O134        C136   1.288       .  A
O135       Zr164   2.416       .  S
O135        C136   1.285       .  A
C136        C218   1.485       .  S
Zr137       O138   2.434       .  S
Zr137       O445   2.434   1_554  S
Zr137       O143   2.374       .  S
Zr137       O144   2.368       .  S
Zr137       O473   2.366   1_554  S
Zr137       O475   2.371   1_554  S
O138        H181   0.990       .  S
O139       Zr443   2.436       .  S
O139        H180   0.990       .  S
O139        H184   0.990       .  S
Zr140       O142   2.434       .  S
Zr140       O753   2.435       .  S
Zr140       O168   2.368       .  S
Zr140       O170   2.369       .  S
Zr140       O756   2.370       .  S
Zr140       O755   2.368       .  S
O141       Zr752   2.436   1_545  S
O141        H182   0.990       .  S
O141        H185   0.990       .  S
O142        H175   0.990       .  S
O143       Zr752   2.370   1_545  S
O143       Zr775   2.380   1_544  S
O144       Zr164   2.385       .  S
O144       Zr752   2.370   1_545  S
O144        H171   0.965       .  S
O145       Zr157   2.442       .  S
O145        C759   1.288       .  A
O146       Zr470   2.423   1_565  S
O146        C759   1.286       .  A
C147        O757   1.288       .  A
C147        O758   1.287       .  A
C147        C238   1.491       .  S
O148       Zr160   2.445       .  S
O148        C456   1.289       .  A
O149       Zr163   2.420       .  S
O149        C456   1.286       .  A
C150        O454   1.288       .  A
C150        O455   1.288       .  A
C150        C188   1.491       .  S
O151       Zr160   2.447       .  S
O151        C459   1.290       .  A
O152       Zr776   2.425       .  S
O152        C459   1.287       .  A
C153        O457   1.289       .  A
C153        O458   1.287       .  A
C153        C208   1.493       .  S
O154       Zr157   2.436       .  S
O154        C768   1.288       .  A
O155       Zr469   2.419       .  S
O155        C156   1.286       .  A
C156        O766   1.287       .  A
C156        C228   1.476       .  S
Zr157       O159   2.435   1_565  S
Zr157       O770   2.436       .  S
Zr157       O169   2.371   1_565  S
Zr157       O167   2.371   1_565  S
Zr157       O777   2.367       .  S
Zr157       O778   2.374       .  S
O158       Zr769   2.436       .  S
O158        H178   0.990       .  S
O158        H183   0.990       .  S
O159        H179   0.990       .  S
Zr160       O162   2.436       .  S
Zr160       O467   2.432   1_554  S
Zr160       O170   2.370       .  S
Zr160       O168   2.369       .  S
Zr160       O472   2.372   1_554  S
Zr160       O471   2.374   1_554  S
O161       Zr466   2.433       .  S
O161        H177   0.990       .  S
O162        H176   0.990       .  S
O162        H186   0.990       .  S
Zr163       O738   2.432   1_554  S
Zr163       O461   2.418   1_554  S
Zr163       O168   2.384       .  S
Zr163       O755   2.378       .  S
Zr163       O472   2.381   1_554  S
Zr163      O1087   2.383   1_554  S
Zr164       O452   2.420   1_554  S
Zr164       O764   2.423   1_545  S
Zr164      O1083   2.382   1_544  S
Zr164       O473   2.379   1_554  S
Zr164       O782   2.377   1_545  S
O165       Zr769   2.367       .  S
O165       Zr466   2.369       .  S
O165      Zr1082   2.384       .  S
O165        H173   0.967       .  S
O166       Zr769   2.369       .  S
O166       Zr466   2.372       .  S
O166       Zr469   2.381       .  S
O167       Zr443   2.370       .  S
O167       Zr470   2.379       .  S
O168        H172   0.966       .  S
O169       Zr443   2.368       .  S
O169      Zr1081   2.385   1_545  S
O169        H174   0.966       .  S
O170       Zr776   2.382       .  S
C187        C192   1.397       .  A
C187        C494   1.408       .  A
C187        F194   1.358       .  S
C188        C493   1.410       .  A
C188        C495   1.410       .  A
C189        C190   1.401       .  A
C189        C494   1.411   1_554  A
C189        F502   1.358       .  S
C190        C191   1.409   1_554  A
C190        F195   1.358       .  S
C191        C192   1.411       .  A
C192        F193   1.358       .  S
F196        C495   1.358       .  S
C197        C198   1.408       .  A
C197        C202   1.394       .  A
C197        F204   1.358       .  S
C198        C199   1.410   1_554  A
C199        C200   1.399       .  A
C199        F206   1.357       .  S
C200        C201   1.409   1_556  A
C200        F205   1.358       .  S
C201        C202   1.410       .  A
C202        F203   1.358       .  S
C207        C208   1.412       .  A
C207        C212   1.402       .  A
C207        F520   1.358       .  S
C208        C209   1.410       .  A
C209        C210   1.397       .  A
C209        F216   1.358       .  S
C210        C211   1.412       .  A
C210        F215   1.358       .  S
C211        C212   1.411       .  A
C212        F519   1.357       .  S
F213        C518   1.357       .  S
F214        C513   1.357       .  S
C217        C222   1.403       .  A
C217        C524   1.413       .  A
C217        F224   1.358       .  S
C218        C219   1.408   1_554  A
C218        C523   1.410       .  A
C219        C220   1.396       .  A
C219        F226   1.358       .  S
C220        C527   1.409   1_556  A
C220        F225   1.358       .  S
C221        C222   1.411       .  A
C221        C526   1.411       .  A
C222        F223   1.358       .  S
C227        C232   1.393       .  A
C227        C840   1.408       .  A
C227        F234   1.358       .  S
C228        C229   1.406       .  A
C228        C839   1.408       .  A
C229        C230   1.396       .  A
C229        F236   1.358       .  S
C230        C843   1.406       .  A
C230        F235   1.355       .  S
C231        C232   1.409       .  A
C231        C842   1.408   1_565  A
C232        F233   1.358       .  S
C237        C238   1.411       .  A
C237        C242   1.401       .  A
C237        F244   1.358       .  S
C238        C851   1.411       .  A
C239        C240   1.397       .  A
C239        C850   1.411       .  A
C239        F246   1.359       .  S
C240        C853   1.413       .  A
C240        F245   1.358       .  S
C241        C242   1.411       .  A
C241        C852   1.411       .  A
C242        F243   1.358       .  S
C247        C252   1.394       .  A
C247        C860   1.412   1_545  A
C247        F254   1.358       .  S
C248        C249   1.409       .  A
C248        C859   1.410       .  A
C249        C250   1.397       .  A
C249        F256   1.358       .  S
C250        C863   1.412       .  A
C250        F255   1.357       .  S
C251        C252   1.409   1_565  A
C251        C862   1.411       .  A
C252        F253   1.358       .  S
C257        C258   1.412       .  A
C257        C262   1.395       .  A
C257        F264   1.358       .  S
C258        C259   1.410       .  A
C259        C260   1.402       .  A
C259        F266   1.358       .  S
C260        C261   1.413       .  A
C260        F265   1.358       .  S
C261        C262   1.411       .  A
C262        F263   1.358       .  S
C267        C272   1.398       .  A
C267       C1492   1.410       .  A
C267        F274   1.358       .  S
C268        C269   1.407       .  A
C268       C1491   1.410   1_455  A
C269        C270   1.395       .  A
C269        F276   1.358       .  S
C270       C1495   1.409       .  A
C270        F275   1.358       .  S
C271        C272   1.409       .  A
C271       C1494   1.408       .  A
C272        F273   1.358       .  S
C277        C282   1.391       .  A
C277       C1502   1.409       .  A
C277        F284   1.359       .  S
C278        C279   1.408   1_655  A
C278       C1501   1.406       .  A
C279        C280   1.396       .  A
C279        F286   1.358       .  S
C280        C281   1.407   1_455  A
C280        F285   1.358       .  S
C281       C1506   1.409       .  A
C282       C1505   1.409       .  A
C282        F283   1.358       .  S
C287        C292   1.401       .  A
C287       C1512   1.408       .  A
C287        F294   1.357       .  S
C288        C289   1.412       .  A
C288       C1511   1.409   1_655  A
C289        C290   1.395       .  A
C289        F296   1.359       .  S
C290       C1515   1.409       .  A
C290        F295   1.359       .  S
C291        C292   1.409       .  A
C291       C1514   1.408       .  A
C292        F293   1.358       .  S
C297        C298   1.408       .  A
C297        C302   1.392       .  A
C297        F304   1.358       .  S
C298       C1523   1.410       .  A
C299        C300   1.395       .  A
C299       C1522   1.407   1_455  A
C299        F306   1.356       .  S
C300       C1525   1.408   1_455  A
C300        F305   1.358       .  S
C301        C302   1.407       .  A
C301       C1524   1.409       .  A
C302        F303   1.358       .  S
O307       Zr319   2.432       .  S
O307        C309   1.287       .  A
O308      Zr1569   2.423       .  S
O308        C309   1.287       .  A
C309        C564   1.488       .  S
O310       Zr322   2.421       .  S
O310        C312   1.284       .  A
O311       Zr958   2.417       .  S
O311        C312   1.286       .  A
C312        C577   1.476       .  S
O313       Zr322   2.429       .  S
O313        C315   1.287       .  A
O314       Zr345   2.411   1_655  S
O314       C1539   1.284       .  A
C315       O1538   1.285       .  A
C315        C607   1.474       .  S
O316       Zr319   2.432   1_565  S
O316        C318   1.286       .  A
O317       Zr346   2.418       .  S
O317        C930   1.286       .  A
C318        O929   1.287       .  A
C318        C537   1.486       .  S
Zr319       O320   2.433       .  S
Zr319       O933   2.433   1_545  S
Zr319       O325   2.365       .  S
Zr319       O326   2.365       .  S
Zr319       O961   2.368   1_545  S
Zr319       O963   2.367   1_545  S
O320        H363   0.990       .  S
O321       Zr931   2.433       .  S
O321        H362   0.990       .  S
O321        H366   0.990       .  S
Zr322       O323   2.436       .  S
Zr322      O1548   2.435       .  S
Zr322       O326   2.369       .  S
Zr322       O325   2.364       .  S
Zr322      O1574   2.366       .  S
Zr322      O1576   2.369       .  S
O323        H364   0.990       .  S
O323        H367   0.990       .  S
O324      Zr1546   2.434   1_455  S
O324        H357   0.989       .  S
O325      Zr1569   2.379       .  S
O326       Zr958   2.386       .  S
O326        H353   0.966       .  S
O327       Zr339   2.440       .  S
O327        C329   1.288   1_455  A
O328       Zr346   2.419       .  S
O328       C1553   1.286       .  A
C329       O1552   1.285       .  A
C329        C587   1.485       .  S
O330       Zr342   2.431       .  S
O330        C332   1.286       .  A
O331       Zr345   2.424       .  S
O331        C944   1.286       .  A
C332        O943   1.288       .  A
C332        C554   1.485       .  S
O333       Zr342   2.439       .  S
O333        C335   1.288       .  A
O334      Zr1570   2.426   1_455  S
O334        C335   1.286       .  A
C335        C547   1.490       .  S
O336       Zr339   2.435       .  S
O336        C338   1.287       .  A
O337       Zr957   2.415       .  S
O337        C338   1.285       .  A
C338        C594   1.484       .  S
Zr339       O340   2.435       .  S
Zr339      O1565   2.433   1_455  S
Zr339       O347   2.369       .  S
Zr339       O348   2.371       .  S
Zr339      O1575   2.367   1_455  S
Zr339      O1573   2.367   1_455  S
O340        H360   0.990       .  S
O340        H365   0.990       .  S
O341      Zr1563   2.432       .  S
O341        H361   0.990       .  S
Zr342       O343   2.432       .  S
Zr342       O956   2.435       .  S
Zr342       O348   2.373       .  S
Zr342       O347   2.369       .  S
Zr342       O964   2.366       .  S
Zr342       O962   2.367       .  S
O343        H359   0.990       .  S
O344       Zr954   2.434       .  S
O344        H358   0.990       .  S
O344        H368   0.990       .  S
Zr345      O1532   2.432   1_455  S
Zr345       O949   2.422   1_545  S
Zr345      O1549   2.382   1_455  S
Zr345       O960   2.381   1_545  S
Zr345       O350   2.387       .  S
Zr345      O2187   2.383   1_445  S
Zr346       O923   2.417       .  S
Zr346      O1558   2.431       .  S
Zr346       O938   2.385       .  S
Zr346      O1571   2.382       .  S
Zr346       O349   2.378       .  S
Zr346      O2188   2.380       .  S
O347      Zr1570   2.385   1_455  S
O347        H355   0.966       .  S
O348       Zr957   2.385       .  S
O349       Zr931   2.367       .  S
O349      Zr1563   2.366       .  S
O350      Zr1546   2.372   1_455  S
O350       Zr954   2.369       .  S
O350        H354   0.967       .  S
O351       Zr931   2.366       .  S
O351      Zr1563   2.376       .  S
O351      Zr2181   2.385       .  S
O351        H356   0.967       .  S
O352      Zr1546   2.369   1_455  S
O352       Zr954   2.370       .  S
O352      Zr2182   2.381   1_455  S
O369       Zr381   2.426       .  S
O369        C371   1.286       .  A
O370       Zr407   2.411       .  S
O370       C1595   1.284       .  A
C371       O1594   1.285       .  A
C371        C604   1.472       .  S
O372       Zr384   2.437       .  S
O372        C374   1.287       .  A
O373       Zr408   2.434       .  S
O373        C374   1.288       .  A
C374        C497   1.493       .  S
O375       Zr384   2.437       .  S
O375        C377   1.288       .  A
O376      Zr1631   2.427       .  S
O376        C377   1.287       .  A
C377        C507   1.486       .  S
O378       Zr381   2.438       .  S
O378        C380   1.288       .  A
O379       Zr408   2.421       .  S
O379        C380   1.286       .  A
C380        C597   1.492       .  S
Zr381       O382   2.436       .  S
Zr381      O1607   2.436       .  S
Zr381       O387   2.370       .  S
Zr381       O388   2.368       .  S
Zr381      O1635   2.366       .  S
Zr381      O1637   2.373       .  S
O382        H425   0.990       .  S
O383      Zr1605   2.436       .  S
O383        H424   0.990       .  S
O383        H428   0.990       .  S
Zr384       O385   2.434       .  S
Zr384       O388   2.371       .  S
Zr384       O387   2.367       .  S
O385        H426   0.990       .  S
O385        H429   0.990       .  S
O386        H419   0.990       .  S
O387      Zr1631   2.379       .  S
O388       Zr408   2.380       .  S
O388        H415   0.966       .  S
O389        C391   1.290       .  A
O390      Zr1632   2.433   1_455  S
C391        C517   1.492       .  S
O392       Zr404   2.440       .  S
O392        C394   1.288       .  A
O393        C394   1.286   1_455  A
C394        C574   1.485       .  S
O395       Zr404   2.435       .  S
O395        C397   1.287       .  A
O396       C1621   1.284       .  A
C397       O1620   1.286       .  A
C397        C584   1.485       .  S
O398       Zr401   2.437       .  S
O399       Zr407   2.429   1_455  S
C400        C527   1.489       .  S
Zr401       O403   2.435       .  S
Zr401       O413   2.371       .  S
Zr401       O411   2.370       .  S
O402        H422   0.990       .  S
O402        H427   0.990       .  S
O403        H423   0.990       .  S
Zr404       O405   2.433   1_655  S
Zr404      O1630   2.435       .  S
Zr404       O410   2.370   1_655  S
Zr404       O409   2.372   1_655  S
Zr404      O1638   2.367       .  S
Zr404      O1636   2.369       .  S
O405        H421   0.990       .  S
O406      Zr1628   2.436       .  S
O406        H420   0.990       .  S
O406        H430   0.990       .  S
Zr407      O1600   2.426       .  S
Zr407      O1611   2.381       .  S
Zr407      O1330   2.384       .  S
Zr407       O413   2.386   1_655  S
Zr408      O1614   2.430       .  S
Zr408      O1327   2.387       .  S
Zr408      O1635   2.380       .  S
O409      Zr1326   2.384   1_456  S
O409        H417   0.966       .  S
O411      Zr1605   2.363       .  S
O411      Zr1632   2.375   1_455  S
O412      Zr1628   2.369       .  S
O412      Zr1325   2.385   1_556  S
O412        H416   0.968       .  S
O413      Zr1605   2.371       .  S
O413        H418   0.966       .  S
O414      Zr1628   2.367       .  S
O431       Zr443   2.447       .  S
O431        C433   1.290       .  A
O432      Zr1081   2.425   1_545  S
O432        C433   1.287       .  A
C433        C504   1.489       .  S
O434       Zr446   2.439       .  S
O434       C1048   1.288       .  A
O435       Zr470   2.422       .  S
O435        C436   1.286       .  A
C436       O1046   1.286       .  A
C436        C557   1.478       .  S
O437       Zr446   2.443       .  S
O437       C1051   1.289       .  A
O438       Zr469   2.420       .  S
O438       C1051   1.286       .  A
C439       O1049   1.289       .  A
C439       O1050   1.285       .  A
C439        C567   1.490       .  S
O440       Zr443   2.445       .  S
O440        C442   1.289       .  A
O441       Zr470   2.425       .  S
O441        C442   1.287       .  A
C442        C524   1.494       .  S
Zr443       O444   2.435       .  S
Zr443       O449   2.373       .  S
Zr443       O450   2.369       .  S
O444        H487   0.990       .  S
O445        H486   0.990       .  S
O445        H490   0.990       .  S
Zr446      O1059   2.436       .  S
Zr446       O448   2.435       .  S
Zr446      O1062   2.372       .  S
Zr446      O1061   2.364       .  S
Zr446       O474   2.373       .  S
Zr446       O476   2.373       .  S
O447      Zr1058   2.435       .  S
O447        H488   0.990       .  S
O447        H491   0.990       .  S
O448        H481   0.990       .  S
O449      Zr1058   2.367       .  S
O449      Zr1081   2.382   1_545  S
O450      Zr1058   2.371       .  S
O450       Zr470   2.384       .  S
O450        H477   0.965       .  S
O451       Zr463   2.453       .  S
O451       C1065   1.291       .  A
O452       C1065   1.286       .  A
C453       O1063   1.289       .  A
C453       O1064   1.286       .  A
C453        C544   1.489       .  S
O454       Zr466   2.437       .  S
O455       Zr469   2.430       .  S
C456        C494   1.487   1_554  S
O457       Zr466   2.443       .  S
O458      Zr1082   2.425       .  S
C459        C514   1.489       .  S
O460       Zr463   2.439       .  S
O460       C1074   1.288       .  A
O461        C462   1.285       .  A
C462       O1072   1.288       .  A
C462        C534   1.488       .  S
Zr463      O1076   2.434   1_545  S
Zr463       O465   2.434       .  S
Zr463      O1083   2.371   1_545  S
Zr463      O1084   2.373   1_545  S
Zr463       O475   2.373       .  S
Zr463       O473   2.368       .  S
O464      Zr1075   2.434       .  S
O464        H484   0.990       .  S
O464        H489   0.990       .  S
O465        H485   0.990       .  S
Zr466       O468   2.432       .  S
Zr466       O476   2.368       .  S
Zr466       O474   2.373       .  S
O467        H483   0.990       .  S
O468        H482   0.990       .  S
O468        H492   0.990       .  S
Zr469      O1044   2.426       .  S
Zr469      O1061   2.378       .  S
Zr469       O474   2.385       .  S
Zr469       O781   2.385       .  S
Zr470      O1070   2.427   1_545  S
Zr470       O777   2.382   1_545  S
Zr470      O1088   2.382   1_545  S
O471      Zr1075   2.373       .  S
O471       Zr776   2.386   1_556  S
O471        H479   0.967       .  S
O472      Zr1075   2.370       .  S
O474        H478   0.966       .  S
O475       Zr775   2.388   1_545  S
O475        H480   0.966       .  S
O476      Zr1082   2.380       .  S
C493        C498   1.397       .  A
C493        F500   1.358       .  S
C495        C496   1.402       .  A
C496        C497   1.411       .  A
C496        F501   1.358       .  S
C497        C498   1.411       .  A
C498        F499   1.358       .  S
C503        C504   1.408       .  A
C503        C508   1.396       .  A
C503        F510   1.358       .  S
C504        C505   1.411       .  A
C505        C506   1.402       .  A
C505        F512   1.356       .  S
C506        C507   1.409       .  A
C506        F511   1.358       .  S
C507        C508   1.408       .  A
C508        F509   1.358       .  S
C513        C514   1.410   1_556  A
C513        C518   1.402       .  A
C514        C515   1.409       .  A
C515        C516   1.399       .  A
C515        F522   1.358       .  S
C516        C517   1.410       .  A
C516        F521   1.358       .  S
C517        C518   1.411   1_554  A
C523        C528   1.401       .  A
C523        F530   1.359       .  S
C524        C525   1.410       .  A
C525        C526   1.395       .  A
C525        F532   1.358       .  S
C526        F531   1.358       .  S
C527        C528   1.410       .  A
C528        F529   1.356       .  S
C533       C1146   1.407       .  A
C533        C538   1.394       .  A
C533        F540   1.359       .  S
C534       C1145   1.410       .  A
C534        C535   1.412       .  A
C535        C536   1.398       .  A
C535        F542   1.358       .  S
C536       C1149   1.409       .  A
C536        F541   1.358       .  S
C537       C1148   1.409   1_565  A
C537        C538   1.411       .  A
C538        F539   1.358       .  S
C543        C544   1.411       .  A
C543        C548   1.401       .  A
C543        F550   1.357       .  S
C544       C1157   1.409       .  A
C545       C1156   1.407       .  A
C545        C546   1.399       .  A
C545        F552   1.358       .  S
C546       C1159   1.409       .  A
C546        F551   1.358       .  S
C547       C1158   1.410       .  A
C547        C548   1.410       .  A
C548        F549   1.357       .  S
C553       C1166   1.408   1_565  A
C553        C558   1.394       .  A
C553        F560   1.358       .  S
C554       C1165   1.410       .  A
C554        C555   1.408       .  A
C555        C556   1.399       .  A
C555        F562   1.356       .  S
C556       C1169   1.408       .  A
C556        F561   1.358       .  S
C557       C1168   1.407       .  A
C557        C558   1.407   1_545  A
C558        F559   1.358       .  S
C563        C564   1.410       .  A
C563        C568   1.395       .  A
C563        F570   1.358       .  S
C564        C565   1.409   1_545  A
C565        C566   1.400       .  A
C565        F572   1.358       .  S
C566        C567   1.412   1_565  A
C566        F571   1.357       .  S
C567        C568   1.409       .  A
C568        F569   1.358       .  S
C573       C1798   1.407       .  A
C573        C578   1.394       .  A
C573        F580   1.356       .  S
C574       C1797   1.410   1_655  A
C574        C575   1.410       .  A
C575        C576   1.395       .  A
C575        F582   1.358       .  S
C576       C1801   1.409       .  A
C576        F581   1.359       .  S
C577       C1800   1.409       .  A
C577        C578   1.407       .  A
C578        F579   1.358       .  S
C583       C1808   1.408       .  A
C583        C588   1.394       .  A
C583        F590   1.358       .  S
C584       C1807   1.410       .  A
C584        C585   1.409   1_655  A
C585        C586   1.399       .  A
C585        F592   1.357       .  S
C586        C587   1.410   1_455  A
C586        F591   1.357       .  S
C587       C1812   1.408       .  A
C588       C1811   1.408       .  A
C588        F589   1.358       .  S
C593       C1818   1.412       .  A
C593        C598   1.401       .  A
C593        F600   1.358       .  S
C594       C1817   1.410   1_455  A
C594        C595   1.408       .  A
C595        C596   1.393       .  A
C595        F602   1.359       .  S
C596       C1821   1.411       .  A
C596        F601   1.358       .  S
C597       C1820   1.410       .  A
C597        C598   1.412       .  A
C598        F599   1.358       .  S
C603        C604   1.406       .  A
C603        C608   1.391       .  A
C603        F610   1.358       .  S
C604       C1829   1.406       .  A
C605       C1828   1.410       .  A
C605        C606   1.395       .  A
C605        F612   1.358       .  S
C606       C1831   1.409       .  A
C606        F611   1.357       .  S
C607       C1830   1.408       .  A
C607        C608   1.406       .  A
C608        F609   1.358       .  S
O613       Zr625   2.443       .  S
O613        C615   1.289       .  A
O614      Zr1875   2.419       .  S
O614        C615   1.286       .  A
C615        C870   1.487       .  S
O616       Zr628   2.434       .  S
O616        C618   1.287       .  A
O617        C618   1.286       .  A
C618        C883   1.483       .  S
O619       Zr628   2.441       .  S
O619        C621   1.289       .  A
O620       Zr651   2.427   1_655  S
O620       C1845   1.288       .  A
C621       O1844   1.286       .  A
C621        C913   1.486       .  S
O622       Zr625   2.436       .  S
O622        C624   1.288       .  A
O623       Zr652   2.421       .  S
C624        C843   1.476       .  S
Zr625       O626   2.431       .  S
Zr625       O631   2.366       .  S
Zr625       O632   2.372       .  S
O626        H669   0.990       .  S
O627        H668   0.990       .  S
O627        H672   0.990       .  S
Zr628       O629   2.437       .  S
Zr628      O1854   2.433       .  S
Zr628       O632   2.369       .  S
Zr628       O631   2.369       .  S
Zr628      O1880   2.368       .  S
Zr628      O1882   2.370       .  S
O629        H670   0.990       .  S
O629        H673   0.990       .  S
O630      Zr1852   2.434       .  S
O630        H663   0.990       .  S
O631      Zr1875   2.382       .  S
O632        H659   0.965       .  S
O633       Zr645   2.431       .  S
O633        C635   1.287       .  A
O634       Zr652   2.414       .  S
O634       C1859   1.285       .  A
C635       O1858   1.284       .  A
C635        C893   1.477       .  S
O636       Zr648   2.427       .  S
O636        C638   1.286       .  A
O637       Zr651   2.417       .  S
C638        C860   1.490       .  S
O639       Zr648   2.433       .  S
O639        C641   1.286       .  A
O640      Zr1876   2.437   1_455  S
O640        C641   1.289       .  A
C641        C853   1.494       .  S
O642       Zr645   2.440       .  S
O642        C644   1.289       .  A
O643        C644   1.285       .  A
C644        C900   1.474       .  S
Zr645       O646   2.437   1_655  S
Zr645      O1871   2.434       .  S
Zr645       O653   2.368   1_655  S
Zr645       O654   2.366   1_655  S
Zr645      O1881   2.370       .  S
Zr645      O1879   2.372       .  S
O646        H666   0.990       .  S
O646        H671   0.990       .  S
O647      Zr1869   2.432       .  S
O647        H667   0.990       .  S
Zr648       O649   2.434       .  S
Zr648       O654   2.370       .  S
Zr648       O653   2.366       .  S
O649        H665   0.990       .  S
O650        H664   0.990       .  S
O650        H674   0.990       .  S
Zr651      O1838   2.425   1_455  S
Zr651      O1855   2.378   1_455  S
Zr651       O656   2.390       .  S
Zr651      O1269   2.382   1_455  S
Zr652      O1864   2.423       .  S
Zr652      O1877   2.382       .  S
Zr652       O655   2.376       .  S
Zr652      O1270   2.381   1_565  S
O653      Zr1876   2.383   1_455  S
O653        H661   0.966       .  S
O655      Zr1869   2.366       .  S
O656      Zr1852   2.370       .  S
O656        H660   0.967       .  S
O657      Zr1869   2.366       .  S
O657      Zr1263   2.382       .  S
O657        H662   0.967       .  S
O658      Zr1852   2.367       .  S
O658      Zr1264   2.379       .  S
O675       Zr687   2.432       .  S
O675        C677   1.287       .  A
O676       Zr713   2.407   1_655  S
O676       C1901   1.284       .  A
C677       O1900   1.287       .  A
C677        C910   1.487       .  S
O678       Zr690   2.441       .  S
O678        C680   1.288       .  A
O679       Zr714   2.436       .  S
O679        C680   1.289       .  A
C680        C803   1.488       .  S
O681       Zr690   2.448       .  S
O681        C683   1.290       .  A
O682      Zr1937   2.426       .  S
O682        C683   1.287   1_556  A
C683        C813   1.492       .  S
O684       Zr687   2.425       .  S
O684        C686   1.285       .  A
O685       Zr714   2.415       .  S
O685        C686   1.285       .  A
C686        C903   1.484       .  S
Zr687       O688   2.434       .  S
Zr687      O1913   2.434       .  S
Zr687       O693   2.369       .  S
Zr687       O694   2.369       .  S
Zr687      O1941   2.369       .  S
Zr687      O1943   2.365       .  S
O688        H731   0.990       .  S
O689      Zr1911   2.434   1_455  S
O689        H730   0.990       .  S
O689        H734   0.990       .  S
Zr690       O691   2.436       .  S
Zr690       O998   2.434   1_554  S
Zr690       O694   2.370       .  S
Zr690       O693   2.370       .  S
Zr690      O1024   2.367   1_554  S
Zr690      O1026   2.375   1_554  S
O691        H732   0.990       .  S
O691        H735   0.990       .  S
O692       Zr996   2.434       .  S
O692        H725   0.990       .  S
O693      Zr1937   2.381   1_554  S
O694       Zr714   2.385       .  S
O694        H721   0.966       .  S
O695      Zr1013   2.443       .  S
O695        C697   1.289       .  A
O696      Zr1938   2.424   1_454  S
O696       C1003   1.286       .  A
C697       O1002   1.287       .  A
C697        C823   1.481       .  S
O698       Zr710   2.428   1_455  S
O698        C700   1.286       .  A
O699      Zr1019   2.417       .  S
O699        C700   1.285       .  A
C700        C880   1.481       .  S
O701       Zr710   2.440       .  S
O701        C703   1.288       .  A
O702      Zr1020   2.411       .  S
O702       C1927   1.285       .  A
C703       O1926   1.285       .  A
C703        C890   1.484       .  S
O704       Zr707   2.443       .  S
O704       C1012   1.289       .  A
O705       Zr713   2.439       .  S
O705       C1012   1.289       .  A
C706       O1010   1.287       .  A
C706       O1011   1.289       .  A
C706        C833   1.492       .  S
Zr707      O1001   2.443       .  S
Zr707      O1014   2.436   1_554  S
Zr707       O709   2.434       .  S
Zr707      O1021   2.367   1_554  S
Zr707      O1022   2.375   1_554  S
Zr707       O719   2.370       .  S
Zr707       O717   2.371       .  S
O708      Zr1013   2.438       .  S
O708        H728   0.990       .  S
O708        H733   0.990       .  S
O709        H729   0.989       .  S
Zr710       O711   2.435   1_655  S
Zr710      O1936   2.434       .  S
Zr710       O716   2.369   1_655  S
Zr710       O715   2.366   1_655  S
Zr710      O1944   2.364       .  S
Zr710      O1942   2.368       .  S
O711        H727   0.990       .  S
O712      Zr1934   2.434       .  S
O712        H726   0.990       .  S
O712        H736   0.990       .  S
Zr713      O1906   2.438   1_455  S
Zr713      O1005   2.421   1_554  S
Zr713      O1917   2.383   1_455  S
Zr713      O1022   2.382   1_554  S
Zr713      O2248   2.383   1_454  S
Zr713       O719   2.386       .  S
Zr714      O1920   2.426   1_554  S
Zr714      O1008   2.424   1_554  S
Zr714      O2245   2.383   1_554  S
Zr714      O1941   2.384       .  S
Zr714      O1026   2.380   1_554  S
O715      Zr1013   2.368       .  S
O715      Zr2244   2.381       .  S
O715        H723   0.966       .  S
O716      Zr1013   2.367       .  S
O716      Zr1019   2.381       .  S
O717      Zr1911   2.367   1_455  S
O717      Zr1938   2.379   1_454  S
O718       Zr996   2.368       .  S
O718      Zr1934   2.364       .  S
O718      Zr2243   2.383       .  S
O718        H722   0.967       .  S
O719      Zr1911   2.372   1_455  S
O719        H724   0.966       .  S
O720       Zr996   2.369       .  S
O720      Zr1934   2.369       .  S
O720      Zr1020   2.378       .  S
O737       Zr749   2.435   1_554  S
O737        C739   1.287   1_554  A
O738        C739   1.288       .  A
C739        C810   1.491       .  S
O740       Zr752   2.439       .  S
O741       Zr776   2.413       .  S
O741        C742   1.284       .  A
C742        C863   1.486       .  S
O743       Zr752   2.441       .  S
O744       Zr775   2.422   1_554  S
C745        C873   1.486       .  S
O746       Zr749   2.439   1_554  S
O746        C748   1.288       .  A
O747       Zr776   2.429       .  S
O747        C748   1.288       .  A
C748        C830   1.489       .  S
Zr749       O750   2.431   1_556  S
Zr749      O1057   2.435       .  S
Zr749       O755   2.370   1_556  S
Zr749       O756   2.370   1_556  S
Zr749      O1085   2.368       .  S
Zr749      O1087   2.369       .  S
O750        H793   0.990       .  S
O751      Zr1055   2.433       .  S
O751        H792   0.990       .  S
O751        H796   0.990       .  S
Zr752       O754   2.434       .  S
Zr752       O780   2.363       .  S
Zr752       O782   2.369       .  S
O753        H794   0.990       .  S
O753        H797   0.990       .  S
O754        H787   0.990       .  S
O756       Zr776   2.385       .  S
O756        H783   0.965       .  S
O757       Zr769   2.437       .  S
O758      Zr1082   2.426       .  S
C759        C850   1.493       .  S
O760       Zr772   2.444       .  S
O760       C1068   1.289       .  A
O761       Zr775   2.432   1_554  S
O761       C1068   1.288   1_554  A
C762       O1066   1.288       .  A
C762       O1067   1.288       .  A
C762        C800   1.490       .  S
O763       Zr772   2.442   1_554  S
O763       C1071   1.288       .  A
O764       C1071   1.286       .  A
C765       O1069   1.288       .  A
C765       O1070   1.287       .  A
C765        C820   1.481       .  S
O766       Zr769   2.435       .  S
O767      Zr1081   2.416       .  S
O767        C768   1.285       .  A
C768        C840   1.483       .  S
Zr769       O771   2.435       .  S
Zr769       O781   2.372       .  S
Zr769       O779   2.372       .  S
O770        H790   0.990       .  S
O770        H795   0.990       .  S
O771        H791   0.990       .  S
Zr772      O1079   2.434       .  S
Zr772       O774   2.433   1_556  S
Zr772      O1084   2.367       .  S
Zr772      O1083   2.368       .  S
Zr772       O782   2.372   1_556  S
Zr772       O780   2.369   1_556  S
O773      Zr1078   2.433       .  S
O773        H789   0.990       .  S
O774        H788   0.990       .  S
O774        H798   0.990       .  S
Zr775      O1073   2.411       .  S
Zr775      O1084   2.381       .  S
Zr775       O780   2.378   1_556  S
Zr776      O1064   2.422   1_554  S
Zr776      O1085   2.378   1_554  S
O777      Zr1078   2.371       .  S
O777        H785   0.967       .  S
O778      Zr1078   2.374       .  S
O778      Zr1081   2.383       .  S
O779      Zr1055   2.370       .  S
O779      Zr1082   2.382       .  S
O780        H784   0.966       .  S
O781      Zr1055   2.369       .  S
O781        H786   0.966       .  S
C799       C1106   1.408       .  A
C799        C804   1.398       .  A
C799        F806   1.358       .  S
C800       C1105   1.410       .  A
C800       C1107   1.410       .  A
C801       C1106   1.411   1_554  A
C801        C802   1.404       .  A
C801       F1114   1.358       .  S
C802        C803   1.409       .  A
C802        F807   1.358       .  S
C803        C804   1.409   1_554  A
C804        F805   1.358       .  S
F808       C1107   1.357       .  S
C809        C810   1.410       .  A
C809        C814   1.395       .  A
C809        F816   1.358       .  S
C810        C811   1.410   1_556  A
C811        C812   1.404       .  A
C811        F818   1.357       .  S
C812        C813   1.412       .  A
C812        F817   1.358       .  S
C813        C814   1.409   1_554  A
C814        F815   1.358       .  S
C819        C820   1.407       .  A
C819        C824   1.401       .  A
C819       F1132   1.358       .  S
C820        C821   1.407       .  A
C821        C822   1.398       .  A
C821        F828   1.358       .  S
C822        C823   1.406       .  A
C822        F827   1.358       .  S
C823        C824   1.408       .  A
C824       F1131   1.356       .  S
F825       C1130   1.358       .  S
F826       C1125   1.357       .  S
C829       C1136   1.409       .  A
C829        C834   1.400       .  A
C829        F836   1.357       .  S
C830       C1135   1.409       .  A
C830        C831   1.409   1_554  A
C831        C832   1.399       .  A
C831        F838   1.359       .  S
C832       C1139   1.411   1_556  A
C832        F837   1.358       .  S
C833       C1138   1.412       .  A
C833        C834   1.410       .  A
C834        F835   1.357       .  S
C839        C844   1.397       .  A
C839        F846   1.358       .  S
C840        C841   1.410   1_565  A
C841        C842   1.399       .  A
C841        F848   1.356       .  S
C842        F847   1.358       .  S
C843        C844   1.406       .  A
C844        F845   1.358       .  S
C849        C850   1.412   1_545  A
C849        C854   1.401       .  A
C849        F856   1.358       .  S
C851        C852   1.395       .  A
C851        F858   1.358       .  S
C852        F857   1.358       .  S
C853        C854   1.409   1_565  A
C854        F855   1.357       .  S
C859        C864   1.392       .  A
C859        F866   1.359       .  S
C860        C861   1.410       .  A
C861        C862   1.400       .  A
C861        F868   1.358       .  S
C862        F867   1.358       .  S
C863        C864   1.409       .  A
C864        F865   1.358       .  S
C869        C870   1.409       .  A
C869        C874   1.394       .  A
C869        F876   1.358       .  S
C870        C871   1.411       .  A
C871        C872   1.401       .  A
C871        F878   1.358       .  S
C872        C873   1.411       .  A
C872        F877   1.357       .  S
C873        C874   1.408       .  A
C874        F875   1.358       .  S
C879       C2104   1.408       .  A
C879        C884   1.398       .  A
C879        F886   1.358       .  S
C880       C2103   1.409       .  A
C880        C881   1.409   1_455  A
C881        C882   1.391       .  A
C881        F888   1.359       .  S
C882       C2107   1.408   1_655  A
C882        F887   1.358       .  S
C883       C2106   1.409       .  A
C883        C884   1.408       .  A
C884        F885   1.356       .  S
C889       C2114   1.408       .  A
C889        C894   1.394       .  A
C889        F896   1.358       .  S
C890       C2113   1.409       .  A
C890        C891   1.411   1_655  A
C891        C892   1.396       .  A
C891        F898   1.357       .  S
C892        C893   1.408   1_455  A
C892        F897   1.359       .  S
C893       C2118   1.407       .  A
C894       C2117   1.408       .  A
C894        F895   1.358       .  S
C899       C2124   1.410       .  A
C899        C904   1.395       .  A
C899        F906   1.358       .  S
C900       C2123   1.407   1_655  A
C900        C901   1.406       .  A
C901        C902   1.395       .  A
C901        F908   1.358       .  S
C902       C2127   1.405       .  A
C902        F907   1.358       .  S
C903       C2126   1.411       .  A
C903        C904   1.410       .  A
C904        F905   1.358       .  S
C909        C910   1.410       .  A
C909        C914   1.397       .  A
C909        F916   1.358       .  S
C910       C2135   1.409       .  A
C911       C2134   1.411   1_455  A
C911        C912   1.397       .  A
C911        F918   1.358       .  S
C912       C2137   1.409   1_455  A
C912        F917   1.358       .  S
C913       C2136   1.410       .  A
C913        C914   1.408       .  A
C914        F915   1.358       .  S
O919       Zr931   2.433       .  S
O919        C921   1.287       .  A
O920      Zr2181   2.424       .  S
O920        C921   1.286       .  A
C921       C1176   1.489       .  S
O922       Zr934   2.421       .  S
O922        C924   1.285       .  A
O923        C924   1.285       .  A
C924       C1189   1.477       .  S
O925       Zr934   2.428       .  S
O925        C927   1.286       .  A
O926       Zr957   2.434   1_655  S
O926       C2151   1.289       .  A
C927       O2150   1.286       .  A
C927       C1219   1.482       .  S
O928       Zr931   2.429       .  S
O928        C930   1.286       .  A
O929       Zr958   2.425   1_565  S
C930       C1149   1.486       .  S
Zr931       O932   2.434       .  S
Zr931       O937   2.368       .  S
Zr931       O938   2.366       .  S
O932        H975   0.990       .  S
O933        H974   0.990       .  S
O933        H978   0.990       .  S
Zr934       O935   2.435       .  S
Zr934      O2160   2.433       .  S
Zr934       O938   2.366       .  S
Zr934       O937   2.363       .  S
Zr934      O2186   2.366       .  S
Zr934      O2188   2.372       .  S
O935        H976   0.990       .  S
O935        H979   0.990       .  S
O936      Zr2158   2.431   1_455  S
O936        H969   0.990       .  S
O937      Zr2181   2.377       .  S
O938        H965   0.966       .  S
O939       Zr951   2.433       .  S
O939        C941   1.287       .  A
O940       Zr958   2.424   1_565  S
O940       C2165   1.287       .  A
C941       O2164   1.286       .  A
C941       C1199   1.491       .  S
O942       Zr954   2.447       .  S
O942        C944   1.290       .  A
O943       Zr957   2.430       .  S
C944       C1166   1.484       .  S
O945       Zr954   2.448       .  S
O945        C947   1.290       .  A
O946      Zr2182   2.425   1_455  S
O946        C947   1.287       .  A
C947       C1159   1.488       .  S
O948       Zr951   2.428       .  S
O948        C950   1.286       .  A
O949        C950   1.286       .  A
C950       C1206   1.484       .  S
Zr951       O952   2.435       .  S
Zr951      O2177   2.431   1_455  S
Zr951       O959   2.366       .  S
Zr951       O960   2.367       .  S
Zr951      O2187   2.371   1_455  S
Zr951      O2185   2.368   1_455  S
O952        H972   0.990       .  S
O952        H977   0.990       .  S
O953      Zr2175   2.434       .  S
O953        H973   0.990       .  S
Zr954       O955   2.436   1_545  S
Zr954       O960   2.371   1_545  S
Zr954       O959   2.371   1_545  S
O955        H971   0.990       .  S
O956        H970   0.990       .  S
O956        H980   0.990       .  S
Zr957      O2144   2.423   1_455  S
Zr957      O2161   2.382   1_455  S
Zr957       O962   2.379       .  S
Zr957      O1575   2.387   1_455  S
Zr958      O2170   2.425       .  S
Zr958      O2183   2.382   1_545  S
Zr958       O961   2.378   1_545  S
Zr958      O1576   2.381       .  S
O959      Zr2182   2.384   1_465  S
O959        H967   0.966       .  S
O961      Zr2175   2.367       .  S
O962      Zr2158   2.369   1_455  S
O962        H966   0.967       .  S
O963      Zr2175   2.366       .  S
O963      Zr1569   2.383   1_565  S
O963        H968   0.967       .  S
O964      Zr2158   2.370   1_455  S
O964      Zr1570   2.380   1_455  S
O981       Zr993   2.441       .  S
O981        C983   1.289       .  A
O982      Zr1019   2.412   1_655  S
O982       C2207   1.285       .  A
C983       O2206   1.286       .  A
C983       C1216   1.486       .  S
O984       Zr996   2.434       .  S
O984        C986   1.287       .  A
O985      Zr1020   2.431       .  S
O985        C986   1.288       .  A
C986       C1109   1.488       .  S
O987       Zr996   2.434       .  S
O987        C989   1.287       .  A
O988      Zr2243   2.423       .  S
O988        C989   1.286       .  A
C989       C1119   1.491       .  S
O990       Zr993   2.439       .  S
O990        C992   1.288       .  A
O991      Zr1020   2.413       .  S
O991        C992   1.284       .  A
C992       C1209   1.485       .  S
Zr993       O994   2.436       .  S
Zr993      O2219   2.435       .  S
Zr993       O999   2.371       .  S
Zr993      O1000   2.371       .  S
Zr993      O2247   2.366       .  S
Zr993      O2249   2.369       .  S
O994       H1037   0.990       .  S
O995      Zr2217   2.434       .  S
O995       H1036   0.990       .  S
O995       H1040   0.990       .  S
Zr996       O997   2.437       .  S
Zr996      O1000   2.370       .  S
Zr996       O999   2.369       .  S
O997       H1038   0.990       .  S
O997       H1041   0.990       .  S
O998       H1031   0.990       .  S
O999      Zr2243   2.381       .  S
O1000     Zr1020   2.386       .  S
O1000      H1027   0.966       .  S
O1001      C1003   1.289       .  A
O1002     Zr2244   2.425       .  S
C1003      C1129   1.491       .  S
O1004     Zr1016   2.435       .  S
O1004      C1006   1.287       .  A
O1005      C1006   1.286       .  A
C1006      C1186   1.483       .  S
O1007     Zr1016   2.439       .  S
O1007      C1009   1.288       .  A
O1008      C2233   1.287       .  A
C1009      O2232   1.285       .  A
C1009      C1196   1.489       .  S
O1010     Zr1013   2.435       .  S
O1011     Zr1019   2.432       .  S
C1012      C1139   1.493       .  S
Zr1013     O1015   2.433       .  S
Zr1013     O1025   2.375       .  S
Zr1013     O1023   2.369       .  S
O1014      H1034   0.990       .  S
O1014      H1039   0.990       .  S
O1015      H1035   0.990       .  S
Zr1016     O1017   2.436       .  S
Zr1016     O2242   2.435   1_455  S
Zr1016     O1022   2.372       .  S
Zr1016     O1021   2.369       .  S
Zr1016     O2250   2.371   1_455  S
Zr1016     O2248   2.367   1_455  S
O1017      H1033   0.990       .  S
O1018     Zr2240   2.436       .  S
O1018      H1032   0.990       .  S
O1018      H1042   0.990       .  S
Zr1019     O2212   2.438   1_455  S
Zr1019     O2223   2.378   1_455  S
Zr1019     O1942   2.381   1_455  S
Zr1019     O1025   2.386       .  S
Zr1020     O2226   2.437       .  S
Zr1020     O1939   2.383       .  S
Zr1020     O2247   2.377       .  S
O1021     Zr1938   2.383   1_455  S
O1021      H1029   0.966       .  S
O1023     Zr2217   2.368       .  S
O1023     Zr2244   2.379       .  S
O1024     Zr2240   2.370       .  S
O1024     Zr1937   2.385       .  S
O1024      H1028   0.967       .  S
O1025     Zr2217   2.368       .  S
O1025      H1030   0.967       .  S
O1026     Zr2240   2.373       .  S
O1043     Zr1055   2.440       .  S
O1043      C1045   1.288       .  A
O1044      C1045   1.287       .  A
C1045      C1116   1.495       .  S
O1046     Zr1058   2.432       .  S
O1047     Zr1082   2.420       .  S
O1047      C1048   1.286       .  A
C1048      C1169   1.482       .  S
O1049     Zr1058   2.443       .  S
O1050     Zr1081   2.419   1_545  S
C1051      C1179   1.491       .  S
O1052     Zr1055   2.433       .  S
O1052      C1054   1.287       .  A
O1053     Zr1082   2.429       .  S
O1053      C1054   1.288       .  A
C1054      C1136   1.490       .  S
Zr1055     O1056   2.435       .  S
Zr1055     O1061   2.365       .  S
Zr1055     O1062   2.370       .  S
O1056      H1099   0.990       .  S
O1057      H1098   0.990       .  S
O1057      H1102   0.990       .  S
Zr1058     O1060   2.436   1_545  S
Zr1058     O1086   2.369   1_545  S
Zr1058     O1088   2.374   1_545  S
O1059      H1100   0.990       .  S
O1059      H1103   0.990       .  S
O1060      H1093   0.990       .  S
O1062     Zr1082   2.385       .  S
O1062      H1089   0.965       .  S
O1063     Zr1075   2.443       .  S
C1065      C1156   1.487       .  S
O1066     Zr1078   2.441       .  S
O1067     Zr1081   2.431       .  S
C1068      C1106   1.488       .  S
O1069     Zr1078   2.440       .  S
C1071      C1126   1.490       .  S
O1072     Zr1075   2.442       .  S
O1073      C1074   1.284   1_565  A
C1074      C1146   1.482   1_545  S
Zr1075     O1077   2.431       .  S
Zr1075     O1087   2.370       .  S
Zr1075     O1085   2.370       .  S
O1076      H1096   0.990       .  S
O1076      H1101   0.990       .  S
O1077      H1097   0.990       .  S
Zr1078     O1080   2.432       .  S
Zr1078     O1088   2.370       .  S
Zr1078     O1086   2.369       .  S
O1079      H1095   0.990       .  S
O1080      H1094   0.990       .  S
O1080      H1104   0.990       .  S
Zr1081     O1086   2.385       .  S
O1083      H1091   0.967       .  S
O1086      H1090   0.966       .  S
O1087      H1092   0.966       .  S
C1105      C1110   1.398       .  A
C1105      F1112   1.358       .  S
C1107      C1108   1.401       .  A
C1108      C1109   1.408       .  A
C1108      F1113   1.358       .  S
C1109      C1110   1.410       .  A
C1110      F1111   1.358       .  S
C1115      C1116   1.411       .  A
C1115      C1120   1.394       .  A
C1115      F1122   1.358       .  S
C1116      C1117   1.413       .  A
C1117      C1118   1.402       .  A
C1117      F1124   1.358       .  S
C1118      C1119   1.411       .  A
C1118      F1123   1.358       .  S
C1119      C1120   1.410       .  A
C1120      F1121   1.358       .  S
C1125      C1126   1.410   1_556  A
C1125      C1130   1.402       .  A
C1126      C1127   1.409       .  A
C1127      C1128   1.396       .  A
C1127      F1134   1.358       .  S
C1128      C1129   1.410       .  A
C1128      F1133   1.358       .  S
C1129      C1130   1.411   1_554  A
C1135      C1140   1.402       .  A
C1135      F1142   1.357       .  S
C1136      C1137   1.412       .  A
C1137      C1138   1.396       .  A
C1137      F1144   1.359       .  S
C1138      F1143   1.359       .  S
C1139      C1140   1.410       .  A
C1140      F1141   1.357       .  S
C1145      C1150   1.394       .  A
C1145      F1152   1.358       .  S
C1146      C1147   1.409   1_565  A
C1147      C1148   1.398       .  A
C1147      F1154   1.357       .  S
C1148      F1153   1.358       .  S
C1149      C1150   1.411       .  A
C1150      F1151   1.358       .  S
C1155      C1156   1.410   1_565  A
C1155      C1160   1.402       .  A
C1155      F1162   1.357       .  S
C1157      C1158   1.397       .  A
C1157      F1164   1.358       .  S
C1158      F1163   1.358       .  S
C1159      C1160   1.410   1_545  A
C1160      F1161   1.358       .  S
C1165      C1170   1.396       .  A
C1165      F1172   1.358       .  S
C1166      C1167   1.410       .  A
C1167      C1168   1.401       .  A
C1167      F1174   1.358       .  S
C1168      F1173   1.359       .  S
C1169      C1170   1.407       .  A
C1170      F1171   1.358       .  S
C1175      C1176   1.410       .  A
C1175      C1180   1.395       .  A
C1175      F1182   1.358       .  S
C1176      C1177   1.409       .  A
C1177      C1178   1.401       .  A
C1177      F1184   1.358       .  S
C1178      C1179   1.412       .  A
C1178      F1183   1.358       .  S
C1179      C1180   1.411       .  A
C1180      F1181   1.358       .  S
C1185      C2410   1.410       .  A
C1185      C1190   1.399       .  A
C1185      F1192   1.358       .  S
C1186      C2409   1.409       .  A
C1186      C1187   1.410   1_455  A
C1187      C1188   1.393       .  A
C1187      F1194   1.358       .  S
C1188      C2413   1.408       .  A
C1188      F1193   1.358       .  S
C1189      C2412   1.408       .  A
C1189      C1190   1.407       .  A
C1190      F1191   1.358       .  S
C1195      C2420   1.408       .  A
C1195      C1200   1.396       .  A
C1195      F1202   1.358       .  S
C1196      C2419   1.409       .  A
C1196      C1197   1.412   1_455  A
C1197      C1198   1.400       .  A
C1197      F1204   1.358       .  S
C1198      C1199   1.411   1_655  A
C1198      F1203   1.358       .  S
C1199      C2424   1.412       .  A
C1200      C2423   1.409       .  A
C1200      F1201   1.358       .  S
C1205      C2430   1.411       .  A
C1205      C1210   1.399       .  A
C1205      F1212   1.358       .  S
C1206      C2429   1.409   1_455  A
C1206      C1207   1.409       .  A
C1207      C1208   1.394       .  A
C1207      F1214   1.358       .  S
C1208      C2433   1.410       .  A
C1208      F1213   1.358       .  S
C1209      C2432   1.409       .  A
C1209      C1210   1.411       .  A
C1210      F1211   1.358       .  S
C1215      C1216   1.409       .  A
C1215      C1220   1.394       .  A
C1215      F1222   1.358       .  S
C1216      C2441   1.411       .  A
C1217      C2440   1.408   1_455  A
C1217      C1218   1.398       .  A
C1217      F1224   1.358       .  S
C1218      C2443   1.409   1_455  A
C1218      F1223   1.356       .  S
C1219      C2442   1.408       .  A
C1219      C1220   1.408       .  A
C1220      F1221   1.359       .  S
O1225     Zr1237   2.435   1_545  S
O1225      C1227   1.287       .  A
O1226      C1227   1.287       .  A
C1227      C1482   1.488       .  S
O1228     Zr1240   2.439   1_455  S
O1228      C1230   1.288       .  A
O1229     Zr1876   2.417   1_445  S
O1229      C1230   1.285       .  A
C1230      C1495   1.483       .  S
O1231     Zr1240   2.433       .  S
O1231      C1233   1.287       .  A
O1232     Zr1263   2.420   1_545  S
C1233      C1525   1.477       .  S
O1234     Zr1237   2.430       .  S
O1234      C1236   1.287       .  A
O1235     Zr1264   2.417   1_655  S
O1235      C1848   1.286       .  A
C1236      O1847   1.287       .  A
C1236      C1455   1.476       .  S
Zr1237     O1238   2.435   1_565  S
Zr1237     O1851   2.436       .  S
Zr1237     O1243   2.370   1_565  S
Zr1237     O1244   2.374   1_565  S
Zr1237     O1879   2.367       .  S
Zr1237     O1881   2.366       .  S
O1238      H1281   0.990       .  S
O1239     Zr1849   2.433       .  S
O1239      H1280   0.990       .  S
O1239      H1284   0.990       .  S
Zr1240     O1241   2.437       .  S
Zr1240     O1244   2.365       .  S
Zr1240     O1243   2.371       .  S
O1241      H1282   0.990       .  S
O1241      H1285   0.990       .  S
O1242      H1275   0.990       .  S
O1244     Zr1876   2.381   1_545  S
O1244      H1271   0.965       .  S
O1245     Zr1257   2.427       .  S
O1245      C1247   1.286       .  A
O1246     Zr1264   2.425   1_655  S
C1247      C1505   1.480       .  S
O1248     Zr1260   2.431       .  S
O1248      C1250   1.287       .  A
O1249     Zr1263   2.421       .  S
O1249      C1862   1.286       .  A
C1250      O1861   1.286       .  A
C1250      C1472   1.484       .  S
O1251     Zr1260   2.438       .  S
O1251      C1253   1.288       .  A
O1252      C1253   1.287       .  A
C1253      C1465   1.487       .  S
O1254     Zr1257   2.426       .  S
O1254      C1256   1.286       .  A
O1255     Zr1875   2.435       .  S
O1255      C1256   1.289       .  A
C1256      C1512   1.486       .  S
Zr1257     O1258   2.434       .  S
Zr1257     O1265   2.366       .  S
Zr1257     O1266   2.366       .  S
O1258      H1278   0.990       .  S
O1258      H1283   0.990       .  S
O1259      H1279   0.990       .  S
Zr1260     O1261   2.434       .  S
Zr1260     O1874   2.433       .  S
Zr1260     O1266   2.367       .  S
Zr1260     O1265   2.364       .  S
Zr1260     O1882   2.369       .  S
Zr1260     O1880   2.370       .  S
O1261      H1277   0.990       .  S
O1262     Zr1872   2.432   1_545  S
O1262      H1276   0.990       .  S
O1262      H1286   0.990       .  S
Zr1263     O1867   2.408       .  S
Zr1263     O1878   2.383       .  S
Zr1263     O1268   2.383   1_565  S
Zr1264     O1841   2.416       .  S
Zr1264     O1856   2.387   1_455  S
Zr1264     O1267   2.380   1_455  S
O1265      H1273   0.966       .  S
O1266     Zr1875   2.377       .  S
O1267     Zr1849   2.370       .  S
O1268     Zr1872   2.370   1_545  S
O1268      H1272   0.967       .  S
O1269     Zr1849   2.365       .  S
O1269      H1274   0.967       .  S
O1270     Zr1872   2.372   1_545  S
O1287     Zr1299   2.423   1_655  S
O1287      C1289   1.285       .  A
O1288     Zr1325   2.418       .  S
C1289      C1522   1.475       .  S
O1290     Zr1302   2.435   1_556  S
O1290      C1292   1.287       .  A
O1291     Zr1326   2.429       .  S
O1291      C1292   1.288   1_554  A
C1292      C1415   1.482       .  S
O1293     Zr1302   2.433       .  S
O1293      C1295   1.287       .  A
O1294      C1295   1.288       .  A
C1295      C1425   1.492       .  S
O1296     Zr1299   2.431       .  S
O1296      C1298   1.287   1_455  A
O1297     Zr1326   2.419       .  S
O1297      C1298   1.286       .  A
C1298      C1515   1.483       .  S
Zr1299     O1300   2.433   1_455  S
Zr1299     O1305   2.369   1_455  S
Zr1299     O1306   2.369   1_455  S
O1300      H1343   0.990       .  S
O1301      H1342   0.990       .  S
O1301      H1346   0.990       .  S
Zr1302     O1303   2.436       .  S
Zr1302     O1610   2.435   1_554  S
Zr1302     O1306   2.368       .  S
Zr1302     O1305   2.368       .  S
Zr1302     O1636   2.368   1_554  S
Zr1302     O1638   2.369   1_554  S
O1303      H1344   0.990       .  S
O1303      H1347   0.990       .  S
O1304     Zr1608   2.438       .  S
O1304      H1337   0.990       .  S
O1306     Zr1326   2.381       .  S
O1306      H1333   0.966       .  S
O1307     Zr1625   2.435       .  S
O1307      C1309   1.287       .  A
O1308      C1615   1.286       .  A
C1309      O1614   1.288       .  A
C1309      C1435   1.494       .  S
O1310     Zr1322   2.440       .  S
O1310      C1312   1.288       .  A
O1311     Zr1631   2.416       .  S
O1311      C1312   1.285       .  A
C1312      C1492   1.483       .  S
O1313     Zr1322   2.432       .  S
O1313      C1315   1.287       .  A
O1314     Zr1632   2.402   1_455  S
C1315      C1502   1.480       .  S
O1316     Zr1319   2.443   1_554  S
O1316      C1624   1.289       .  A
O1317     Zr1325   2.429       .  S
O1317      C1624   1.288       .  A
C1318      O1622   1.288       .  A
C1318      O1623   1.286       .  A
C1318      C1445   1.487       .  S
Zr1319     O1613   2.442   1_556  S
Zr1319     O1626   2.436       .  S
Zr1319     O1321   2.435   1_556  S
Zr1319     O1633   2.369       .  S
Zr1319     O1634   2.372       .  S
Zr1319     O1331   2.367   1_556  S
Zr1319     O1329   2.372   1_556  S
O1320     Zr1625   2.438       .  S
O1320      H1340   0.990       .  S
O1320      H1345   0.990       .  S
O1321      H1341   0.990       .  S
Zr1322     O1323   2.437       .  S
Zr1322     O1328   2.367       .  S
Zr1322     O1327   2.365       .  S
O1323      H1339   0.990       .  S
O1324      H1338   0.990       .  S
O1324      H1348   0.990       .  S
Zr1325     O1617   2.416   1_554  S
Zr1325     O1634   2.381   1_554  S
Zr1325     O1331   2.381       .  S
Zr1326     O1620   2.420   1_554  S
Zr1326     O1638   2.379   1_554  S
O1327     Zr1625   2.365       .  S
O1327      H1335   0.966       .  S
O1328     Zr1625   2.369       .  S
O1328     Zr1631   2.381       .  S
O1330     Zr1608   2.371       .  S
O1330      H1334   0.968       .  S
O1331      H1336   0.966       .  S
O1332     Zr1608   2.369       .  S
O1332     Zr1632   2.381       .  S
O1349     Zr1361   2.443   1_554  S
O1349      C1351   1.288       .  A
O1350     Zr1999   2.426   1_545  S
O1350      C1351   1.287   1_556  A
C1351      C1422   1.494       .  S
O1352     Zr1364   2.440       .  S
O1352      C1966   1.288       .  A
O1353     Zr1388   2.421   1_554  S
O1353      C1354   1.286       .  A
C1354      O1964   1.286       .  A
C1354      C1475   1.486       .  S
O1355     Zr1364   2.445       .  S
O1355      C1969   1.289       .  A
O1356     Zr1387   2.418       .  S
O1356      C1969   1.285       .  A
C1357      O1967   1.287       .  A
C1357      O1968   1.285       .  A
C1357      C1485   1.488       .  S
O1358     Zr1361   2.449       .  S
O1358      C1360   1.290   1_556  A
O1359     Zr1388   2.422   1_544  S
O1359      C1360   1.286       .  A
C1360      C1442   1.487       .  S
Zr1361     O1362   2.434   1_556  S
Zr1361     O1669   2.437       .  S
Zr1361     O1367   2.371   1_556  S
Zr1361     O1368   2.372   1_556  S
Zr1361     O1697   2.370       .  S
Zr1361     O1699   2.374       .  S
O1362      H1405   0.990       .  S
O1363     Zr1667   2.433       .  S
O1363      H1404   0.990       .  S
O1363      H1408   0.990       .  S
Zr1364     O1977   2.436       .  S
Zr1364     O1366   2.434       .  S
Zr1364     O1980   2.371       .  S
Zr1364     O1979   2.372       .  S
Zr1364     O1392   2.369       .  S
Zr1364     O1394   2.374       .  S
O1365     Zr1976   2.439   1_545  S
O1365      H1406   0.990       .  S
O1365      H1409   0.990       .  S
O1366      H1399   0.990       .  S
O1367     Zr1976   2.369   1_545  S
O1367     Zr1999   2.381   1_544  S
O1368     Zr1976   2.368   1_545  S
O1368     Zr1388   2.385   1_544  S
O1368      H1395   0.965       .  S
O1369     Zr1381   2.436       .  S
O1369      C1983   1.287       .  A
O1370     Zr1694   2.411       .  S
O1370      C1983   1.284       .  A
C1371      O1981   1.291       .  A
C1371      O1982   1.285       .  A
C1371      C1462   1.489       .  S
O1372     Zr1384   2.438       .  S
O1372      C1680   1.288       .  A
O1373     Zr1387   2.427       .  S
O1373      C1680   1.287       .  A
C1374      O1678   1.289       .  A
C1374      O1679   1.287       .  A
C1374      C1412   1.489       .  S
O1375     Zr1384   2.444       .  S
O1375      C1683   1.289       .  A
O1376     Zr2000   2.429       .  S
O1376      C1683   1.287       .  A
C1377      O1681   1.288       .  A
C1377      O1682   1.289       .  A
C1377      C1432   1.498       .  S
O1378     Zr1381   2.430       .  S
O1378      C1992   1.287       .  A
O1379     Zr1693   2.414       .  S
O1379      C1380   1.285       .  A
C1380      O1990   1.290       .  A
C1380      C1452   1.486       .  S
Zr1381     O1994   2.436       .  S
Zr1381     O1383   2.434   1_565  S
Zr1381     O2001   2.364       .  S
Zr1381     O2002   2.370       .  S
Zr1381     O1393   2.373   1_565  S
Zr1381     O1391   2.367   1_565  S
O1382     Zr1993   2.434       .  S
O1382      H1402   0.990       .  S
O1382      H1407   0.990       .  S
O1383      H1403   0.990       .  S
Zr1384     O1691   2.431   1_554  S
Zr1384     O1386   2.435       .  S
Zr1384     O1696   2.371   1_554  S
Zr1384     O1695   2.369   1_554  S
Zr1384     O1394   2.371       .  S
Zr1384     O1392   2.370       .  S
O1385     Zr1690   2.434       .  S
O1385      H1401   0.990       .  S
O1386      H1400   0.990       .  S
O1386      H1410   0.990       .  S
Zr1387     O1962   2.431       .  S
Zr1387     O1685   2.426   1_554  S
Zr1387     O1979   2.383       .  S
Zr1387     O1696   2.381   1_554  S
Zr1387     O1392   2.386       .  S
Zr1387     O2311   2.386   1_554  S
Zr1388     O1676   2.417   1_565  S
Zr1388     O1988   2.424       .  S
Zr1388     O2307   2.386       .  S
Zr1388     O1697   2.382   1_565  S
Zr1388     O2006   2.378   1_556  S
O1389     Zr1993   2.371       .  S
O1389     Zr1690   2.368       .  S
O1389     Zr2306   2.385       .  S
O1389      H1397   0.967       .  S
O1390     Zr1993   2.369       .  S
O1390     Zr1690   2.368       .  S
O1390     Zr1693   2.383       .  S
O1391     Zr1667   2.370       .  S
O1391     Zr1694   2.378   1_545  S
O1392      H1396   0.966       .  S
O1393     Zr1667   2.367       .  S
O1393     Zr2305   2.385   1_545  S
O1393      H1398   0.966       .  S
O1394     Zr2000   2.383       .  S
C1411      C1718   1.408       .  A
C1411      C1416   1.398       .  A
C1411      F1418   1.358       .  S
C1412      C1717   1.410       .  A
C1412      C1719   1.411       .  A
C1413      C1718   1.408   1_554  A
C1413      C1414   1.400       .  A
C1413      F1726   1.358       .  S
C1414      C1415   1.408   1_554  A
C1414      F1419   1.358       .  S
C1415      C1416   1.409       .  A
C1416      F1417   1.358       .  S
F1420      C1719   1.358       .  S
C1421      C1422   1.411   1_556  A
C1421      C1426   1.395       .  A
C1421      F1428   1.358       .  S
C1422      C1423   1.412       .  A
C1423      C1424   1.403       .  A
C1423      F1430   1.358       .  S
C1424      C1425   1.411       .  A
C1424      F1429   1.358       .  S
C1425      C1426   1.411   1_554  A
C1426      F1427   1.358       .  S
C1431      C1432   1.412       .  A
C1431      C1436   1.403       .  A
C1431      F1744   1.357       .  S
C1432      C1433   1.413       .  A
C1433      C1434   1.397       .  A
C1433      F1440   1.358       .  S
C1434      C1435   1.411       .  A
C1434      F1439   1.359       .  S
C1435      C1436   1.411       .  A
C1436      F1743   1.358       .  S
F1437      C1742   1.358       .  S
F1438      C1737   1.358   1_556  S
C1441      C1748   1.411       .  A
C1441      C1446   1.399       .  A
C1441      F1448   1.358       .  S
C1442      C1747   1.410   1_554  A
C1442      C1443   1.408       .  A
C1443      C1444   1.398       .  A
C1443      F1450   1.358       .  S
C1444      C1751   1.409       .  A
C1444      F1449   1.358       .  S
C1445      C1750   1.410       .  A
C1445      C1446   1.410       .  A
C1446      F1447   1.358       .  S
C1451      C2064   1.406   1_545  A
C1451      C1456   1.393       .  A
C1451      F1458   1.359       .  S
C1452      C2063   1.408       .  A
C1452      C1453   1.412       .  A
C1453      C1454   1.399       .  A
C1453      F1460   1.358       .  S
C1454      C2067   1.409       .  A
C1454      F1459   1.358       .  S
C1455      C2066   1.407       .  A
C1455      C1456   1.407   1_565  A
C1456      F1457   1.358       .  S
C1461      C1462   1.412       .  A
C1461      C1466   1.402       .  A
C1461      F1468   1.358       .  S
C1462      C2075   1.408       .  A
C1463      C2074   1.408   1_545  A
C1463      C1464   1.393       .  A
C1463      F1470   1.358       .  S
C1464      C2077   1.409   1_545  A
C1464      F1469   1.358       .  S
C1465      C2076   1.409       .  A
C1465      C1466   1.410       .  A
C1466      F1467   1.358       .  S
C1471      C2084   1.409       .  A
C1471      C1476   1.395       .  A
C1471      F1478   1.358       .  S
C1472      C2083   1.409       .  A
C1472      C1473   1.409       .  A
C1473      C1474   1.398       .  A
C1473      F1480   1.357       .  S
C1474      C2087   1.410       .  A
C1474      F1479   1.358       .  S
C1475      C2086   1.409   1_565  A
C1475      C1476   1.410       .  A
C1476      F1477   1.358       .  S
C1481      C1482   1.410       .  A
C1481      C1486   1.395       .  A
C1481      F1488   1.358       .  S
C1482      C1483   1.410   1_545  A
C1483      C1484   1.400       .  A
C1483      F1490   1.358       .  S
C1484      C1485   1.411   1_565  A
C1484      F1489   1.358       .  S
C1485      C1486   1.410       .  A
C1486      F1487   1.358       .  S
C1491      C1496   1.400       .  A
C1491      F1498   1.358       .  S
C1492      C1493   1.409       .  A
C1493      C1494   1.393       .  A
C1493      F1500   1.358       .  S
C1494      F1499   1.358       .  S
C1495      C1496   1.410   1_455  A
C1496      F1497   1.358       .  S
C1501      C1506   1.394       .  A
C1501      F1508   1.359       .  S
C1502      C1503   1.410       .  A
C1503      C1504   1.398       .  A
C1503      F1510   1.358       .  S
C1504      C1505   1.409       .  A
C1504      F1509   1.358       .  S
C1506      F1507   1.358       .  S
C1511      C1516   1.398       .  A
C1511      F1518   1.357       .  S
C1512      C1513   1.411       .  A
C1513      C1514   1.395       .  A
C1513      F1520   1.358       .  S
C1514      F1519   1.358       .  S
C1515      C1516   1.409   1_655  A
C1516      F1517   1.358       .  S
C1521      C1522   1.407       .  A
C1521      C1526   1.393       .  A
C1521      F1528   1.359       .  S
C1523      C1524   1.401       .  A
C1523      F1530   1.358       .  S
C1524      F1529   1.357       .  S
C1525      C1526   1.408       .  A
C1526      F1527   1.358       .  S
O1531     Zr1543   2.439       .  S
O1531      C1533   1.288   1_565  A
O1532      C1533   1.288       .  A
C1533      C1788   1.485       .  S
O1534     Zr1546   2.430       .  S
O1534      C1536   1.286       .  A
O1535     Zr2182   2.423       .  S
O1535      C1536   1.286       .  A
C1536      C1801   1.482       .  S
O1537     Zr1546   2.429       .  S
O1537      C1539   1.286       .  A
O1538     Zr1569   2.414       .  S
C1539      C1831   1.482       .  S
O1540     Zr1543   2.437       .  S
O1540      C1542   1.288       .  A
O1541     Zr1570   2.420       .  S
O1541      C2154   1.286       .  A
C1542      O2153   1.285       .  A
C1542      C1761   1.484       .  S
Zr1543     O1544   2.434   1_565  S
Zr1543     O2157   2.437       .  S
Zr1543     O1549   2.371   1_565  S
Zr1543     O1550   2.371   1_565  S
Zr1543     O2185   2.368       .  S
Zr1543     O2187   2.368       .  S
O1544      H1587   0.990       .  S
O1545     Zr2155   2.435       .  S
O1545      H1586   0.990       .  S
O1545      H1590   0.990       .  S
Zr1546     O1547   2.435       .  S
Zr1546     O1550   2.367       .  S
Zr1546     O1549   2.367       .  S
O1547      H1588   0.990       .  S
O1547      H1591   0.990       .  S
O1548      H1581   0.990       .  S
O1550     Zr2182   2.386       .  S
O1550      H1577   0.966       .  S
O1551     Zr1563   2.448       .  S
O1551      C1553   1.290       .  A
O1552     Zr1570   2.414       .  S
C1553      C1811   1.485       .  S
O1554     Zr1566   2.427       .  S
O1554      C1556   1.286       .  A
O1555     Zr1569   2.429   1_565  S
O1555      C2168   1.287   1_565  A
C1556      O2167   1.285       .  A
C1556      C1778   1.479       .  S
O1557     Zr1566   2.428       .  S
O1557      C1559   1.286       .  A
O1558      C1559   1.288       .  A
C1559      C1771   1.488       .  S
O1560     Zr1563   2.438       .  S
O1560      C1562   1.288       .  A
O1561     Zr2181   2.419       .  S
O1561      C1562   1.285       .  A
C1562      C1818   1.491       .  S
Zr1563     O1564   2.436       .  S
Zr1563     O1571   2.366       .  S
Zr1563     O1572   2.365       .  S
O1564      H1584   0.990       .  S
O1564      H1589   0.990       .  S
O1565      H1585   0.990       .  S
Zr1566     O1567   2.434       .  S
Zr1566     O2180   2.434       .  S
Zr1566     O1572   2.369       .  S
Zr1566     O1571   2.368       .  S
Zr1566     O2188   2.368       .  S
Zr1566     O2186   2.364       .  S
O1567      H1583   0.990       .  S
O1568     Zr2178   2.433       .  S
O1568      H1582   0.990       .  S
O1568      H1592   0.990       .  S
Zr1569     O2173   2.412   1_545  S
Zr1569     O2184   2.377   1_545  S
Zr1569     O1574   2.380       .  S
Zr1570     O2147   2.415       .  S
Zr1570     O2162   2.385       .  S
Zr1570     O1573   2.379       .  S
O1571      H1579   0.966       .  S
O1572     Zr2181   2.381       .  S
O1573     Zr2155   2.368       .  S
O1574     Zr2178   2.361       .  S
O1574      H1578   0.967       .  S
O1575     Zr2155   2.368       .  S
O1575      H1580   0.967       .  S
O1576     Zr2178   2.365       .  S
O1593     Zr1605   2.422   1_655  S
O1593      C1595   1.284       .  A
O1594     Zr1631   2.414       .  S
C1595      C1828   1.483       .  S
O1596     Zr1608   2.438       .  S
O1596      C1598   1.288       .  A
O1597     Zr1632   2.429       .  S
O1597      C1598   1.288       .  A
C1598      C1721   1.486       .  S
O1599     Zr1608   2.441       .  S
O1599      C1601   1.288       .  A
O1600      C1601   1.287       .  A
C1601      C1731   1.493       .  S
O1602     Zr1605   2.429       .  S
O1602      C1604   1.286       .  A
O1603     Zr1632   2.422   1_455  S
O1603      C1604   1.286       .  A
C1604      C1821   1.487       .  S
Zr1605     O1606   2.433   1_455  S
Zr1605     O1611   2.370   1_455  S
Zr1605     O1612   2.370   1_455  S
O1606      H1649   0.990       .  S
O1607      H1648   0.990       .  S
O1607      H1652   0.990       .  S
Zr1608     O1609   2.437       .  S
Zr1608     O1612   2.376       .  S
Zr1608     O1611   2.369       .  S
O1609      H1650   0.990       .  S
O1609      H1653   0.990       .  S
O1610      H1643   0.990       .  S
O1612     Zr1632   2.383       .  S
O1612      H1639   0.966       .  S
O1613      C1615   1.289       .  A
C1615      C1741   1.493       .  S
O1616     Zr1628   2.425       .  S
O1616      C1618   1.285       .  A
O1617      C1618   1.285       .  A
C1618      C1798   1.478       .  S
O1619     Zr1628   2.435       .  S
O1619      C1621   1.287       .  A
C1621      C1808   1.482       .  S
O1622     Zr1625   2.439       .  S
O1623     Zr1631   2.421       .  S
C1624      C1751   1.487       .  S
Zr1625     O1627   2.433       .  S
Zr1625     O1637   2.369       .  S
Zr1625     O1635   2.374       .  S
O1626      H1646   0.990       .  S
O1626      H1651   0.990       .  S
O1627      H1647   0.990       .  S
Zr1628     O1629   2.436       .  S
Zr1628     O1634   2.373       .  S
Zr1628     O1633   2.368       .  S
O1629      H1645   0.990       .  S
O1630      H1644   0.990       .  S
O1630      H1654   0.990       .  S
Zr1631     O1637   2.387       .  S
O1633      H1641   0.966       .  S
O1636      H1640   0.967       .  S
O1637      H1642   0.966       .  S
O1655     Zr1667   2.438       .  S
O1655      C1657   1.288       .  A
O1656     Zr2305   2.424   1_545  S
O1656      C1657   1.286       .  A
C1657      C1728   1.492       .  S
O1658     Zr1670   2.442       .  S
O1658      C2272   1.289       .  A
O1659     Zr1694   2.407       .  S
O1659      C1660   1.283       .  A
C1660      O2270   1.288   1_565  A
C1660      C1781   1.485       .  S
O1661     Zr1670   2.444       .  S
O1661      C2275   1.289       .  A
O1662     Zr1693   2.422       .  S
O1662      C2275   1.286       .  A
C1663      O2273   1.289       .  A
C1663      O2274   1.287       .  A
C1663      C1791   1.482       .  S
O1664     Zr1667   2.436       .  S
O1664      C1666   1.288       .  A
O1665     Zr1694   2.421   1_545  S
O1665      C1666   1.286       .  A
C1666      C1748   1.487       .  S
Zr1667     O1668   2.436       .  S
Zr1667     O1673   2.370       .  S
Zr1667     O1674   2.368       .  S
O1668      H1711   0.990       .  S
O1669      H1710   0.990       .  S
O1669      H1714   0.990       .  S
Zr1670     O2283   2.436       .  S
Zr1670     O1672   2.433       .  S
Zr1670     O2286   2.368       .  S
Zr1670     O2285   2.370       .  S
Zr1670     O1698   2.371       .  S
Zr1670     O1700   2.373       .  S
O1671     Zr2282   2.436       .  S
O1671      H1712   0.990       .  S
O1671      H1715   0.990       .  S
O1672      H1705   0.990       .  S
O1673     Zr2282   2.366       .  S
O1673     Zr2305   2.379   1_545  S
O1674     Zr2282   2.369       .  S
O1674     Zr1694   2.384   1_545  S
O1674      H1701   0.965       .  S
O1675     Zr1687   2.435       .  S
O1675      C2289   1.287   1_565  A
O1676      C2289   1.285       .  A
C1677      O2287   1.289       .  A
C1677      O2288   1.286       .  A
C1677      C1768   1.488       .  S
O1678     Zr1690   2.445       .  S
O1679     Zr1693   2.425       .  S
C1680      C1718   1.482   1_554  S
O1681     Zr1690   2.440       .  S
O1682     Zr2306   2.439       .  S
C1683      C1738   1.496       .  S
O1684     Zr1687   2.437       .  S
O1684      C2298   1.288       .  A
O1685      C1686   1.287       .  A
C1686      O2296   1.289       .  A
C1686      C1758   1.485       .  S
Zr1687     O2300   2.438       .  S
Zr1687     O1689   2.433   1_565  S
Zr1687     O2307   2.370       .  S
Zr1687     O2308   2.368       .  S
Zr1687     O1699   2.372   1_565  S
Zr1687     O1697   2.371   1_565  S
O1688     Zr2299   2.438       .  S
O1688      H1708   0.990       .  S
O1688      H1713   0.990       .  S
O1689      H1709   0.990       .  S
Zr1690     O1692   2.435       .  S
Zr1690     O1700   2.373       .  S
Zr1690     O1698   2.370       .  S
O1691      H1707   0.990       .  S
O1692      H1706   0.990       .  S
O1692      H1716   0.990       .  S
Zr1693     O2268   2.433       .  S
Zr1693     O2285   2.381       .  S
Zr1693     O1698   2.384       .  S
Zr1693     O2005   2.386       .  S
Zr1694     O2294   2.420       .  S
Zr1694     O2001   2.379       .  S
Zr1694     O2312   2.380       .  S
O1695     Zr2299   2.374       .  S
O1695     Zr2000   2.385   1_556  S
O1695      H1703   0.967       .  S
O1696     Zr2299   2.371       .  S
O1698      H1702   0.966       .  S
O1699     Zr1999   2.386   1_545  S
O1699      H1704   0.966       .  S
O1700     Zr2306   2.382       .  S
C1717      C1722   1.398       .  A
C1717      F1724   1.358       .  S
C1719      C1720   1.401       .  A
C1720      C1721   1.408       .  A
C1720      F1725   1.358       .  S
C1721      C1722   1.409       .  A
C1722      F1723   1.358       .  S
C1727      C1728   1.410       .  A
C1727      C1732   1.394       .  A
C1727      F1734   1.358       .  S
C1728      C1729   1.412       .  A
C1729      C1730   1.402       .  A
C1729      F1736   1.358       .  S
C1730      C1731   1.412       .  A
C1730      F1735   1.358       .  S
C1731      C1732   1.411       .  A
C1732      F1733   1.358       .  S
C1737      C1738   1.413       .  A
C1737      C1742   1.404   1_554  A
C1738      C1739   1.411       .  A
C1739      C1740   1.396       .  A
C1739      F1746   1.358       .  S
C1740      C1741   1.410       .  A
C1740      F1745   1.358       .  S
C1741      C1742   1.412   1_554  A
C1747      C1752   1.402       .  A
C1747      F1754   1.358       .  S
C1748      C1749   1.410       .  A
C1749      C1750   1.395       .  A
C1749      F1756   1.358       .  S
C1750      F1755   1.358       .  S
C1751      C1752   1.408   1_554  A
C1752      F1753   1.356       .  S
C1757      C2370   1.409       .  A
C1757      C1762   1.395       .  A
C1757      F1764   1.358       .  S
C1758      C2369   1.409       .  A
C1758      C1759   1.409       .  A
C1759      C1760   1.400       .  A
C1759      F1766   1.358       .  S
C1760      C2373   1.409       .  A
C1760      F1765   1.358       .  S
C1761      C2372   1.409   1_565  A
C1761      C1762   1.409       .  A
C1762      F1763   1.358       .  S
C1767      C1768   1.411       .  A
C1767      C1772   1.401       .  A
C1767      F1774   1.358       .  S
C1768      C2381   1.409       .  A
C1769      C2380   1.408       .  A
C1769      C1770   1.394       .  A
C1769      F1776   1.358       .  S
C1770      C2383   1.411       .  A
C1770      F1775   1.358       .  S
C1771      C2382   1.411       .  A
C1771      C1772   1.409       .  A
C1772      F1773   1.357       .  S
C1777      C2390   1.411       .  A
C1777      C1782   1.393       .  A
C1777      F1784   1.358       .  S
C1778      C2389   1.408       .  A
C1778      C1779   1.407       .  A
C1779      C1780   1.397       .  A
C1779      F1786   1.359       .  S
C1780      C2393   1.410       .  A
C1780      F1785   1.356       .  S
C1781      C2392   1.411   1_565  A
C1781      C1782   1.408       .  A
C1782      F1783   1.358       .  S
C1787      C1788   1.408   1_565  A
C1787      C1792   1.396       .  A
C1787      F1794   1.358       .  S
C1788      C1789   1.409       .  A
C1789      C1790   1.402       .  A
C1789      F1796   1.357       .  S
C1790      C1791   1.408       .  A
C1790      F1795   1.358       .  S
C1791      C1792   1.407   1_545  A
C1792      F1793   1.358       .  S
C1797      C1802   1.398       .  A
C1797      F1804   1.358       .  S
C1798      C1799   1.409       .  A
C1799      C1800   1.392       .  A
C1799      F1806   1.359       .  S
C1800      F1805   1.359       .  S
C1801      C1802   1.407   1_655  A
C1802      F1803   1.358       .  S
C1807      C1812   1.394       .  A
C1807      F1814   1.358       .  S
C1808      C1809   1.410       .  A
C1809      C1810   1.400       .  A
C1809      F1816   1.358       .  S
C1810      C1811   1.411       .  A
C1810      F1815   1.357       .  S
C1812      F1813   1.358       .  S
C1817      C1822   1.399       .  A
C1817      F1824   1.358       .  S
C1818      C1819   1.410       .  A
C1819      C1820   1.393       .  A
C1819      F1826   1.358       .  S
C1820      F1825   1.358       .  S
C1821      C1822   1.410   1_455  A
C1822      F1823   1.358       .  S
C1827      C1828   1.411   1_455  A
C1827      C1832   1.392   1_455  A
C1827      F1834   1.359       .  S
C1829      C1830   1.398       .  A
C1829      F1836   1.358       .  S
C1830      F1835   1.358       .  S
C1831      C1832   1.410       .  A
C1832      F1833   1.359   1_655  S
O1837     Zr1849   2.438       .  S
O1837      C1839   1.288       .  A
O1838      C1839   1.287       .  A
C1839      C2094   1.482       .  S
O1840     Zr1852   2.432       .  S
O1840      C1842   1.287       .  A
O1841      C1842   1.285       .  A
C1842      C2107   1.481       .  S
O1843     Zr1852   2.428   1_655  S
O1843      C1845   1.286       .  A
O1844     Zr1875   2.421       .  S
C1845      C2137   1.486       .  S
O1846     Zr1849   2.428       .  S
O1846      C1848   1.286       .  A
O1847     Zr1876   2.427       .  S
C1848      C2067   1.482       .  S
Zr1849     O1850   2.434       .  S
Zr1849     O1855   2.363       .  S
Zr1849     O1856   2.369       .  S
O1850      H1893   0.990       .  S
O1851      H1892   0.990       .  S
O1851      H1896   0.990       .  S
Zr1852     O1853   2.436   1_455  S
Zr1852     O1856   2.364   1_455  S
Zr1852     O1855   2.368   1_455  S
O1853      H1894   0.990       .  S
O1853      H1897   0.990       .  S
O1854      H1887   0.990       .  S
O1856      H1883   0.966       .  S
O1857     Zr1869   2.426       .  S
O1857      C1859   1.286       .  A
O1858     Zr1876   2.406       .  S
C1859      C2117   1.476       .  S
O1860     Zr1872   2.439       .  S
O1860      C1862   1.288       .  A
O1861     Zr1875   2.419       .  S
C1862      C2084   1.488       .  S
O1863     Zr1872   2.433       .  S
O1863      C1865   1.286       .  A
O1864      C1865   1.286       .  A
C1865      C2077   1.483       .  S
O1866     Zr1869   2.425       .  S
O1866      C1868   1.285       .  A
O1867      C1868   1.284       .  A
C1868      C2124   1.482       .  S
Zr1869     O1870   2.433       .  S
Zr1869     O1877   2.365       .  S
Zr1869     O1878   2.364       .  S
O1870      H1890   0.990       .  S
O1870      H1895   0.990       .  S
O1871      H1891   0.990       .  S
Zr1872     O1873   2.437       .  S
Zr1872     O1878   2.367       .  S
Zr1872     O1877   2.366       .  S
O1873      H1889   0.990       .  S
O1874      H1888   0.990       .  S
O1874      H1898   0.990       .  S
Zr1875     O1880   2.386       .  S
Zr1876     O1879   2.381       .  S
O1877      H1885   0.966       .  S
O1880      H1884   0.967       .  S
O1881      H1886   0.967       .  S
O1899     Zr1911   2.437       .  S
O1899      C1901   1.288       .  A
O1900     Zr1937   2.426   1_554  S
C1901      C2134   1.483       .  S
O1902     Zr1914   2.437       .  S
O1902      C1904   1.287       .  A
O1903     Zr1938   2.427       .  S
O1903      C1904   1.287       .  A
C1904      C2027   1.487       .  S
O1905     Zr1914   2.437       .  S
O1905      C1907   1.288   1_556  A
O1906      C1907   1.289       .  A
C1907      C2037   1.498       .  S
O1908     Zr1911   2.441       .  S
O1908      C1910   1.288       .  A
O1909     Zr1938   2.414   1_554  S
O1909      C1910   1.284       .  A
C1910      C2127   1.474       .  S
Zr1911     O1912   2.436       .  S
Zr1911     O1917   2.369       .  S
Zr1911     O1918   2.370       .  S
O1912      H1955   0.990       .  S
O1913      H1954   0.990       .  S
O1913      H1958   0.990       .  S
Zr1914     O1915   2.435   1_556  S
Zr1914     O2222   2.434       .  S
Zr1914     O1918   2.367   1_556  S
Zr1914     O1917   2.369   1_556  S
Zr1914     O2248   2.368       .  S
Zr1914     O2250   2.370       .  S
O1915      H1956   0.990       .  S
O1915      H1959   0.990       .  S
O1916     Zr2220   2.434       .  S
O1916      H1949   0.990       .  S
O1918     Zr1938   2.385   1_554  S
O1918      H1945   0.966       .  S
O1919     Zr2237   2.433       .  S
O1919      C1921   1.287       .  A
O1920      C2227   1.287       .  A
C1921      O2226   1.289       .  A
C1921      C2047   1.486       .  S
O1922     Zr1934   2.433       .  S
O1922      C1924   1.287       .  A
O1923     Zr2243   2.417       .  S
O1923      C1924   1.286       .  A
C1924      C2104   1.480       .  S
O1925     Zr1934   2.427       .  S
O1925      C1927   1.286       .  A
O1926     Zr2244   2.416   1_655  S
C1927      C2114   1.476       .  S
O1928     Zr1931   2.442       .  S
O1928      C2236   1.289       .  A
O1929     Zr1937   2.427       .  S
O1929      C2236   1.287       .  A
C1930      O2234   1.287       .  A
C1930      O2235   1.287       .  A
C1930      C2057   1.482       .  S
Zr1931     O2225   2.439   1_556  S
Zr1931     O2238   2.438       .  S
Zr1931     O1933   2.435   1_556  S
Zr1931     O2245   2.371       .  S
Zr1931     O2246   2.370       .  S
Zr1931     O1943   2.370   1_556  S
Zr1931     O1941   2.370   1_556  S
O1932     Zr2237   2.438       .  S
O1932      H1952   0.990       .  S
O1932      H1957   0.990       .  S
O1933      H1953   0.990       .  S
Zr1934     O1935   2.433       .  S
Zr1934     O1940   2.369       .  S
Zr1934     O1939   2.370       .  S
O1935      H1951   0.990       .  S
O1936      H1950   0.990       .  S
O1936      H1960   0.990       .  S
Zr1937     O2229   2.417       .  S
Zr1937     O2246   2.383       .  S
Zr1937     O1943   2.383   1_556  S
Zr1938     O2232   2.414   1_655  S
Zr1938     O2250   2.380       .  S
O1939     Zr2237   2.369       .  S
O1939      H1947   0.966       .  S
O1940     Zr2237   2.366       .  S
O1940     Zr2243   2.379       .  S
O1942     Zr2220   2.370       .  S
O1942      H1946   0.968       .  S
O1943      H1948   0.966       .  S
O1944     Zr2220   2.367       .  S
O1944     Zr2244   2.374   1_655  S
O1961     Zr1973   2.439       .  S
O1961      C1963   1.288       .  A
O1962      C1963   1.288       .  A
C1963      C2034   1.496       .  S
O1964     Zr1976   2.431       .  S
O1965     Zr2000   2.415       .  S
O1965      C1966   1.285       .  A
C1966      C2087   1.484       .  S
O1967     Zr1976   2.434   1_545  S
O1968     Zr1999   2.419   1_544  S
C1969      C2097   1.482       .  S
O1970     Zr1973   2.446   1_556  S
O1970      C1972   1.289       .  A
O1971     Zr2000   2.425       .  S
O1971      C1972   1.286   1_554  A
C1972      C2054   1.496       .  S
Zr1973     O1974   2.434       .  S
Zr1973     O2281   2.434   1_554  S
Zr1973     O1979   2.373       .  S
Zr1973     O1980   2.366       .  S
Zr1973     O2309   2.368   1_554  S
Zr1973     O2311   2.374   1_554  S
O1974      H2017   0.990       .  S
O1975     Zr2279   2.436       .  S
O1975      H2016   0.990       .  S
O1975      H2020   0.990       .  S
Zr1976     O1978   2.434       .  S
Zr1976     O2004   2.370       .  S
Zr1976     O2006   2.371       .  S
O1977      H2018   0.990       .  S
O1977      H2021   0.990       .  S
O1978      H2011   0.990       .  S
O1980     Zr2000   2.386       .  S
O1980      H2007   0.965       .  S
O1981     Zr1993   2.453       .  S
O1982     Zr2306   2.418       .  S
C1983      C2074   1.484       .  S
O1984     Zr1996   2.438       .  S
O1984      C2292   1.288       .  A
O1985     Zr1999   2.424       .  S
O1985      C2292   1.287       .  A
C1986      O2290   1.289       .  A
C1986      O2291   1.285       .  A
C1986      C2024   1.488       .  S
O1987     Zr1996   2.446   1_554  S
O1987      C2295   1.289       .  A
O1988      C2295   1.286   1_556  A
C1989      O2293   1.288       .  A
C1989      O2294   1.286       .  A
C1989      C2044   1.483       .  S
O1990     Zr1993   2.448       .  S
O1991     Zr2305   2.417       .  S
O1991      C1992   1.285       .  A
C1992      C2064   1.474       .  S
Zr1993     O1995   2.433       .  S
Zr1993     O2005   2.372       .  S
Zr1993     O2003   2.372       .  S
O1994      H2014   0.990       .  S
O1994      H2019   0.990       .  S
O1995      H2015   0.990       .  S
Zr1996     O2303   2.438       .  S
Zr1996     O1998   2.434   1_556  S
Zr1996     O2308   2.369       .  S
Zr1996     O2307   2.369       .  S
Zr1996     O2006   2.369   1_556  S
Zr1996     O2004   2.376   1_556  S
O1997     Zr2302   2.434       .  S
O1997      H2013   0.990       .  S
O1998      H2012   0.990       .  S
O1998      H2022   0.990       .  S
Zr1999     O2297   2.415       .  S
Zr1999     O2308   2.382       .  S
Zr1999     O2004   2.385   1_556  S
Zr2000     O2288   2.420   1_554  S
Zr2000     O2309   2.380   1_554  S
O2001     Zr2302   2.370       .  S
O2001      H2009   0.967       .  S
O2002     Zr2302   2.370       .  S
O2002     Zr2305   2.383       .  S
O2003     Zr2279   2.372       .  S
O2003     Zr2306   2.386       .  S
O2004      H2008   0.966       .  S
O2005     Zr2279   2.371       .  S
O2005      H2010   0.966       .  S
C2023      C2330   1.410       .  A
C2023      C2028   1.396       .  A
C2023      F2030   1.358       .  S
C2024      C2329   1.409       .  A
C2024      C2331   1.410       .  A
C2025      C2330   1.410   1_554  A
C2025      C2026   1.400       .  A
C2025      F2338   1.358       .  S
C2026      C2027   1.410   1_554  A
C2026      F2031   1.358       .  S
C2027      C2028   1.410       .  A
C2028      F2029   1.358       .  S
F2032      C2331   1.358       .  S
C2033      C2034   1.412       .  A
C2033      C2038   1.396       .  A
C2033      F2040   1.358       .  S
C2034      C2035   1.412   1_554  A
C2035      C2036   1.404       .  A
C2035      F2042   1.358       .  S
C2036      C2037   1.412   1_556  A
C2036      F2041   1.357       .  S
C2037      C2038   1.412       .  A
C2038      F2039   1.358       .  S
C2043      C2044   1.408       .  A
C2043      C2048   1.399       .  A
C2043      F2356   1.355       .  S
C2044      C2045   1.407       .  A
C2045      C2046   1.398       .  A
C2045      F2052   1.358       .  S
C2046      C2047   1.410       .  A
C2046      F2051   1.358       .  S
C2047      C2048   1.407       .  A
C2048      F2355   1.356       .  S
F2049      C2354   1.358       .  S
F2050      C2349   1.358       .  S
C2053      C2360   1.409       .  A
C2053      C2058   1.401       .  A
C2053      F2060   1.356       .  S
C2054      C2359   1.413   1_556  A
C2054      C2055   1.411       .  A
C2055      C2056   1.397       .  A
C2055      F2062   1.358       .  S
C2056      C2363   1.411       .  A
C2056      F2061   1.358       .  S
C2057      C2362   1.407       .  A
C2057      C2058   1.407       .  A
C2058      F2059   1.358       .  S
C2063      C2068   1.393       .  A
C2063      F2070   1.358       .  S
C2064      C2065   1.408       .  A
C2065      C2066   1.400       .  A
C2065      F2072   1.358       .  S
C2066      F2071   1.358       .  S
C2067      C2068   1.409       .  A
C2068      F2069   1.359       .  S
C2073      C2074   1.410       .  A
C2073      C2078   1.398       .  A
C2073      F2080   1.356       .  S
C2075      C2076   1.396       .  A
C2075      F2082   1.358       .  S
C2076      F2081   1.358       .  S
C2077      C2078   1.408       .  A
C2078      F2079   1.357       .  S
C2083      C2088   1.394       .  A
C2083      F2090   1.358       .  S
C2084      C2085   1.411   1_565  A
C2085      C2086   1.399       .  A
C2085      F2092   1.357       .  S
C2086      F2091   1.358       .  S
C2087      C2088   1.409       .  A
C2088      F2089   1.358       .  S
C2093      C2094   1.408       .  A
C2093      C2098   1.396       .  A
C2093      F2100   1.358       .  S
C2094      C2095   1.408       .  A
C2095      C2096   1.400       .  A
C2095      F2102   1.358       .  S
C2096      C2097   1.409       .  A
C2096      F2101   1.358       .  S
C2097      C2098   1.407       .  A
C2098      F2099   1.358       .  S
C2103      C2108   1.399       .  A
C2103      F2110   1.358       .  S
C2104      C2105   1.408       .  A
C2105      C2106   1.395       .  A
C2105      F2112   1.358       .  S
C2106      F2111   1.358       .  S
C2107      C2108   1.410       .  A
C2108      F2109   1.358       .  S
C2113      C2118   1.394       .  A
C2113      F2120   1.358       .  S
C2114      C2115   1.407       .  A
C2115      C2116   1.394       .  A
C2115      F2122   1.357       .  S
C2116      C2117   1.407       .  A
C2116      F2121   1.357       .  S
C2118      F2119   1.358       .  S
C2123      C2128   1.399       .  A
C2123      F2130   1.358       .  S
C2124      C2125   1.409       .  A
C2125      C2126   1.392       .  A
C2125      F2132   1.359       .  S
C2126      F2131   1.359       .  S
C2127      C2128   1.408   1_655  A
C2128      F2129   1.358       .  S
C2133      C2134   1.408       .  A
C2133      C2138   1.394       .  A
C2133      F2140   1.359       .  S
C2135      C2136   1.400       .  A
C2135      F2142   1.358       .  S
C2136      F2141   1.358       .  S
C2137      C2138   1.412       .  A
C2138      F2139   1.358       .  S
O2143     Zr2155   2.437       .  S
O2143      C2145   1.288       .  A
O2144      C2145   1.287       .  A
C2145      C2400   1.485       .  S
O2146     Zr2158   2.435       .  S
O2146      C2148   1.288       .  A
O2147      C2148   1.285       .  A
C2148      C2413   1.483       .  S
O2149     Zr2158   2.435       .  S
O2149      C2151   1.287       .  A
O2150     Zr2181   2.423       .  S
C2151      C2443   1.488       .  S
O2152     Zr2155   2.442       .  S
O2152      C2154   1.289       .  A
O2153     Zr2182   2.417   1_565  S
C2154      C2373   1.483       .  S
Zr2155     O2156   2.434       .  S
Zr2155     O2161   2.372       .  S
Zr2155     O2162   2.368       .  S
O2156      H2199   0.990       .  S
O2157      H2198   0.990       .  S
O2157      H2202   0.990       .  S
Zr2158     O2159   2.436       .  S
Zr2158     O2162   2.368       .  S
Zr2158     O2161   2.369       .  S
O2159      H2200   0.990       .  S
O2159      H2203   0.990       .  S
O2160      H2193   0.990       .  S
O2162      H2189   0.966       .  S
O2163     Zr2175   2.435       .  S
O2163      C2165   1.287       .  A
O2164     Zr2182   2.424   1_465  S
C2165      C2423   1.484       .  S
O2166     Zr2178   2.430       .  S
O2166      C2168   1.286       .  A
O2167     Zr2181   2.414       .  S
C2168      C2390   1.490   1_545  S
O2169     Zr2178   2.429       .  S
O2169      C2171   1.286       .  A
O2170      C2171   1.287       .  A
C2171      C2383   1.487       .  S
O2172     Zr2175   2.429       .  S
O2172      C2174   1.286       .  A
O2173      C2174   1.284       .  A
C2174      C2430   1.484       .  S
Zr2175     O2176   2.433       .  S
Zr2175     O2183   2.368       .  S
Zr2175     O2184   2.369       .  S
O2176      H2196   0.990       .  S
O2176      H2201   0.990       .  S
O2177      H2197   0.990       .  S
Zr2178     O2179   2.431   1_545  S
Zr2178     O2184   2.370   1_545  S
Zr2178     O2183   2.373   1_545  S
O2179      H2195   0.990       .  S
O2180      H2194   0.990       .  S
O2180      H2204   0.990       .  S
Zr2181     O2186   2.383       .  S
Zr2182     O2185   2.381   1_545  S
O2183      H2191   0.966       .  S
O2186      H2190   0.967       .  S
O2187      H2192   0.967       .  S
O2205     Zr2217   2.442       .  S
O2205      C2207   1.289   1_455  A
O2206     Zr2243   2.423       .  S
C2207      C2440   1.481       .  S
O2208     Zr2220   2.443       .  S
O2208      C2210   1.289       .  A
O2209     Zr2244   2.426   1_655  S
O2209      C2210   1.287       .  A
C2210      C2333   1.491       .  S
O2211     Zr2220   2.436       .  S
O2211      C2213   1.287       .  A
O2212      C2213   1.289       .  A
C2213      C2343   1.494       .  S
O2214     Zr2217   2.438       .  S
O2214      C2216   1.288       .  A
O2215     Zr2244   2.417       .  S
O2215      C2216   1.285       .  A
C2216      C2433   1.486       .  S
Zr2217     O2218   2.432   1_455  S
Zr2217     O2223   2.370   1_455  S
Zr2217     O2224   2.371   1_455  S
O2218      H2261   0.990       .  S
O2219      H2260   0.990       .  S
O2219      H2264   0.990       .  S
Zr2220     O2221   2.436       .  S
Zr2220     O2224   2.370       .  S
Zr2220     O2223   2.369       .  S
O2221      H2262   0.990       .  S
O2221      H2265   0.990       .  S
O2222      H2255   0.990       .  S
O2224     Zr2244   2.383   1_655  S
O2224      H2251   0.966       .  S
O2225      C2227   1.288   1_554  A
C2227      C2353   1.485       .  S
O2228     Zr2240   2.437       .  S
O2228      C2230   1.288       .  A
O2229      C2230   1.285       .  A
C2230      C2410   1.480       .  S
O2231     Zr2240   2.439       .  S
O2231      C2233   1.288       .  A
C2233      C2420   1.483       .  S
O2234     Zr2237   2.437       .  S
O2235     Zr2243   2.426       .  S
C2236      C2363   1.495       .  S
Zr2237     O2239   2.433       .  S
Zr2237     O2249   2.372       .  S
Zr2237     O2247   2.371       .  S
O2238      H2258   0.990       .  S
O2238      H2263   0.990       .  S
O2239      H2259   0.990       .  S
Zr2240     O2241   2.434       .  S
Zr2240     O2246   2.370       .  S
Zr2240     O2245   2.367       .  S
O2241      H2257   0.990       .  S
O2242      H2256   0.990       .  S
O2242      H2266   0.990       .  S
Zr2243     O2249   2.380       .  S
O2245      H2253   0.966       .  S
O2248      H2252   0.967       .  S
O2249      H2254   0.966       .  S
O2267     Zr2279   2.442       .  S
O2267      C2269   1.288       .  A
O2268      C2269   1.288       .  A
C2269      C2340   1.493       .  S
O2270     Zr2282   2.438       .  S
O2271     Zr2306   2.414       .  S
O2271      C2272   1.285       .  A
C2272      C2393   1.484       .  S
O2273     Zr2282   2.444       .  S
O2274     Zr2305   2.426   1_545  S
C2275      C2403   1.486       .  S
O2276     Zr2279   2.444       .  S
O2276      C2278   1.289       .  A
O2277     Zr2306   2.434       .  S
O2277      C2278   1.289       .  A
C2278      C2360   1.487       .  S
Zr2279     O2280   2.437       .  S
Zr2279     O2285   2.375       .  S
Zr2279     O2286   2.372       .  S
O2280      H2323   0.990       .  S
O2281      H2322   0.990       .  S
O2281      H2326   0.990       .  S
Zr2282     O2284   2.435   1_545  S
Zr2282     O2310   2.371   1_545  S
Zr2282     O2312   2.373   1_545  S
O2283      H2324   0.990       .  S
O2283      H2327   0.990       .  S
O2284      H2317   0.990       .  S
O2286     Zr2306   2.387       .  S
O2286      H2313   0.965       .  S
O2287     Zr2299   2.442       .  S
C2289      C2380   1.484       .  S
O2290     Zr2302   2.443       .  S
O2291     Zr2305   2.416       .  S
C2292      C2330   1.488       .  S
O2293     Zr2302   2.442       .  S
C2295      C2350   1.488       .  S
O2296     Zr2299   2.443       .  S
O2297      C2298   1.285       .  A
C2298      C2370   1.484       .  S
Zr2299     O2301   2.436       .  S
Zr2299     O2311   2.370       .  S
Zr2299     O2309   2.368       .  S
O2300      H2320   0.990       .  S
O2300      H2325   0.990       .  S
O2301      H2321   0.990       .  S
Zr2302     O2304   2.434       .  S
Zr2302     O2312   2.369       .  S
Zr2302     O2310   2.369       .  S
O2303      H2319   0.990       .  S
O2304      H2318   0.990       .  S
O2304      H2328   0.990       .  S
Zr2305     O2310   2.384       .  S
O2307      H2315   0.967       .  S
O2310      H2314   0.966       .  S
O2311      H2316   0.966       .  S
C2329      C2334   1.396       .  A
C2329      F2336   1.358       .  S
C2331      C2332   1.402       .  A
C2332      C2333   1.411       .  A
C2332      F2337   1.358       .  S
C2333      C2334   1.410       .  A
C2334      F2335   1.358       .  S
C2339      C2340   1.410       .  A
C2339      C2344   1.397       .  A
C2339      F2346   1.358       .  S
C2340      C2341   1.411       .  A
C2341      C2342   1.403       .  A
C2341      F2348   1.358       .  S
C2342      C2343   1.411       .  A
C2342      F2347   1.358       .  S
C2343      C2344   1.412       .  A
C2344      F2345   1.358       .  S
C2349      C2350   1.412       .  A
C2349      C2354   1.402       .  A
C2350      C2351   1.409   1_554  A
C2351      C2352   1.395       .  A
C2351      F2358   1.358       .  S
C2352      C2353   1.408       .  A
C2352      F2357   1.358       .  S
C2353      C2354   1.409   1_556  A
C2359      C2364   1.403       .  A
C2359      F2366   1.358       .  S
C2360      C2361   1.409       .  A
C2361      C2362   1.399       .  A
C2361      F2368   1.358       .  S
C2362      F2367   1.358       .  S
C2363      C2364   1.412   1_556  A
C2364      F2365   1.358       .  S
C2369      C2374   1.397       .  A
C2369      F2376   1.358       .  S
C2370      C2371   1.410   1_565  A
C2371      C2372   1.398       .  A
C2371      F2378   1.358       .  S
C2372      F2377   1.358       .  S
C2373      C2374   1.408       .  A
C2374      F2375   1.358       .  S
C2379      C2380   1.409   1_565  A
C2379      C2384   1.399       .  A
C2379      F2386   1.358       .  S
C2381      C2382   1.395       .  A
C2381      F2388   1.358       .  S
C2382      F2387   1.358       .  S
C2383      C2384   1.410   1_545  A
C2384      F2385   1.357       .  S
C2389      C2394   1.395       .  A
C2389      F2396   1.358       .  S
C2390      C2391   1.411   1_565  A
C2391      C2392   1.400       .  A
C2391      F2398   1.358       .  S
C2392      F2397   1.358       .  S
C2393      C2394   1.409       .  A
C2394      F2395   1.358       .  S
C2399      C2400   1.410       .  A
C2399      C2404   1.395       .  A
C2399      F2406   1.358       .  S
C2400      C2401   1.409       .  A
C2401      C2402   1.400       .  A
C2401      F2408   1.358       .  S
C2402      C2403   1.410       .  A
C2402      F2407   1.358       .  S
C2403      C2404   1.408       .  A
C2404      F2405   1.358       .  S
C2409      C2414   1.399       .  A
C2409      F2416   1.358       .  S
C2410      C2411   1.407       .  A
C2411      C2412   1.393       .  A
C2411      F2418   1.358       .  S
C2412      F2417   1.358       .  S
C2413      C2414   1.411   1_655  A
C2414      F2415   1.358       .  S
C2419      C2424   1.395       .  A
C2419      F2426   1.358       .  S
C2420      C2421   1.409       .  A
C2421      C2422   1.400       .  A
C2421      F2428   1.358       .  S
C2422      C2423   1.409       .  A
C2422      F2427   1.357       .  S
C2424      F2425   1.358       .  S
C2429      C2434   1.399       .  A
C2429      F2436   1.358       .  S
C2430      C2431   1.409       .  A
C2431      C2432   1.391       .  A
C2431      F2438   1.358       .  S
C2432      F2437   1.358       .  S
C2433      C2434   1.411   1_455  A
C2434      F2435   1.358       .  S
C2439      C2440   1.407       .  A
C2439      C2444   1.398       .  A
C2439      F2446   1.359       .  S
C2441      C2442   1.400       .  A
C2441      F2448   1.358       .  S
C2442      F2447   1.358       .  S
C2443      C2444   1.412       .  A
C2444      F2445   1.358       .  S
