geometry optimzed in LAMMPS
_audit_creation_date              2020-11-30 
_audit_creation_method            'lammps2cif' 
_symmetry_space_group_name_H-M    'P1' 
_symmetry_Int_Tables_number       1 
_symmetry_cell_setting            triclinic 
loop_ 
_symmetry_equiv_pos_as_xyz 
  x,y,z 
_cell_length_a                    24.41078049 
_cell_length_b                    24.44461094836958 
_cell_length_c                    27.04797604074666 
_cell_angle_alpha                 90.00010106441002 
_cell_angle_beta                  90.00041626750983 
_cell_angle_gamma                 88.36782202994975 
loop_ 
_atom_site_label 
_atom_site_type_symbol 
_atom_site_fract_x 
_atom_site_fract_y 
_atom_site_fract_z 
_atom_site_charge 
C1          C  0.86851044  0.35919635  0.05266113     0.32600
C2          C  0.86864345  0.36101251  0.28082829     0.32600
C3          C  0.81394475  0.36607766  0.02582187    -0.03600
C4          C  0.90764156  0.39878672  0.02618301    -0.04400
C5          C  0.89088318  0.30462980  0.02660884    -0.04200
C6          C  0.81367887  0.36599268  0.30746683    -0.03600
C7          C  0.90631146  0.40208369  0.30704011    -0.04400
C8          C  0.89306497  0.30783709  0.30708548    -0.04200
C9          C  0.76493716  0.34277913  0.29386939    -0.29600
N10         N  0.73233859  0.33837855  0.00030587     0.16900
C11         C  0.76448155  0.34479306  0.03970882    -0.29600
H12         H  0.75253932  0.33232299  0.07635677     0.18800
C13         C  0.96058471  0.41219735  0.29402012    -0.28600
N14         N  0.99074597  0.42435643  0.33372937     0.15600
C15         C  0.96172384  0.40936481  0.03936926    -0.28600
C16         C  0.91968177  0.25926974  0.29290900    -0.28900
N17         N  0.92437172  0.22292310  0.00009556     0.16100
H18         H  0.92926394  0.24603529  0.25573268     0.18700
C19         C  0.91390955  0.25402291  0.04071744    -0.28900
H20         H  0.92274924  0.24006513  0.07779430     0.18700
H21         H  0.97998415  0.40452202  0.07546709     0.18700
H22         H  0.75302169  0.33041004  0.25716262     0.18800
H23         H  0.97920690  0.40632046  0.25818367     0.18700
C24         C  0.85973463  0.36807792  0.11407618     0.32600
C25         C  0.86032829  0.36849158  0.21945000     0.32600
C26         C  0.86372205  0.31335442  0.14100090    -0.03600
C27         C  0.90146006  0.40504222  0.14011619    -0.04400
C28         C  0.80649550  0.39343151  0.14048647    -0.04200
C29         C  0.86452247  0.31346323  0.19289534    -0.03600
C30         C  0.90154193  0.40532187  0.19287810    -0.04400
C31         C  0.80695273  0.39350835  0.19360407    -0.04200
C32         C  0.84181201  0.26469951  0.20697162    -0.29600
N33         N  0.83336988  0.23307845  0.16745036     0.16900
C34         C  0.83942052  0.26512444  0.12784308    -0.29600
H35         H  0.82557249  0.25374166  0.09143496     0.18800
C36         C  0.91187365  0.45931804  0.20589975    -0.28600
N37         N  0.92419779  0.48931129  0.16629527     0.15600
C38         C  0.91240548  0.45887771  0.12667922    -0.28600
C39         C  0.75841603  0.42018712  0.20825293    -0.28900
N40         N  0.72759499  0.43278231  0.16796700     0.16100
H41         H  0.74561463  0.42980864  0.24553750     0.18700
C42         C  0.75737859  0.42009899  0.12696775    -0.28900
H43         H  0.74350915  0.42973286  0.08999749     0.18700
H44         H  0.90715595  0.47708199  0.09060313     0.18700
H45         H  0.83024809  0.25279951  0.24389239     0.18800
H46         H  0.90572561  0.47806120  0.24162654     0.18700
C47         C  0.35643921  0.09553428  0.05158052     0.32600
C48         C  0.36076051  0.09857961  0.28012628     0.32600
C49         C  0.38064458  0.14577916  0.02579901    -0.03600
C50         C  0.39075892  0.04842834  0.02486015    -0.04400
C51         C  0.30253389  0.08527261  0.02491087    -0.04200
C52         C  0.37583381  0.15076472  0.30781983    -0.03600
C53         C  0.40464782  0.06041103  0.30646412    -0.04400
C54         C  0.30828376  0.07874088  0.30513790    -0.04200
C55         C  0.42107494  0.18190689  0.29684791    -0.29600
N56         N  0.44218449  0.20351923  0.33751560     0.16900
C57         C  0.42836294  0.17161480  0.03930185    -0.29600
H58         H  0.44804721  0.17063654  0.07504277     0.18800
C59         C  0.45283105  0.03240003  0.29534010    -0.28600
N60         N  0.46299843  0.99571010  0.33161689     0.15600
C61         C  0.42197031  0.00260192  0.03714245    -0.28600
C62         C  0.27836776  0.03459562  0.28942789    -0.28900
N63         N  0.25592475  0.00952348  0.32788543     0.16100
H64         H  0.27553334  0.01892614  0.25218088     0.18700
C65         C  0.26765242  0.04378582  0.03779610    -0.28900
H66         H  0.26294026  0.02578744  0.07397903     0.18700
H67         H  0.41698647  0.97648908  0.06863709     0.18700
H68         H  0.44236132  0.18388591  0.26194962     0.18800
H69         H  0.47805937  0.03828687  0.26338830     0.18700
C70         C  0.35221708  0.10226785  0.21861303     0.32600
C71         C  0.35252909  0.10390158  0.11317143     0.32600
C72         C  0.37364334  0.15525774  0.19216598    -0.03600
C73         C  0.37878505  0.05302227  0.19033043    -0.04400
C74         C  0.29490664  0.10254664  0.19288072    -0.04200
C75         C  0.37334251  0.15591025  0.13920435    -0.03600
C76         C  0.38736434  0.06040521  0.14016813    -0.04400
C77         C  0.29482333  0.10239052  0.14016553    -0.04200
C78         C  0.36830640  0.21075559  0.12524141    -0.29600
N79         N  0.37020444  0.24287646  0.16521858     0.16900
C80         C  0.36669214  0.21056468  0.20513683    -0.29600
H81         H  0.35498642  0.22708648  0.24067708     0.18800
C82         C  0.43984808  0.03897263  0.13329991    -0.28600
N83         N  0.45032534  0.00180997  0.16882711     0.15600
C84         C  0.41048460  0.00758421  0.20288032    -0.28600
C85         C  0.23977646  0.10815897  0.12681582    -0.28900
N86         N  0.20773164  0.10535643  0.16742445     0.16100
H87         H  0.22300091  0.11412051  0.09028870     0.18700
C88         C  0.24037412  0.10630014  0.20764158    -0.28900
H89         H  0.22457174  0.10837790  0.24487535     0.18700
H90         H  0.40497694  0.98052413  0.23390376     0.18700
H91         H  0.36022848  0.22702680  0.08878070     0.18800
H92         H  0.46858983  0.04932675  0.10462743     0.18700
C93         C  0.59995083  0.85303688  0.05317039     0.32600
C94         C  0.60148841  0.85297865  0.28087668     0.32600
C95         C  0.57748590  0.79994474  0.02751577    -0.03600
C96         C  0.57284584  0.90190063  0.02459565    -0.04400
C97         C  0.65700377  0.85163520  0.02691474    -0.04200
C98         C  0.59961821  0.79605548  0.30668962    -0.03600
C99         C  0.55373952  0.88164166  0.30934875    -0.04400
C100        C  0.65568359  0.87230503  0.30699982    -0.04200
C101        C  0.60310896  0.74161491  0.29192718    -0.29600
N102        N  0.60307850  0.70915156  0.33221152     0.16900
C103        C  0.58221090  0.74480312  0.04158867    -0.29600
H104        H  0.59236103  0.72870373  0.07767479     0.18800
C105        C  0.50820009  0.91319009  0.29724279    -0.28600
N106        N  0.50296577  0.95318176  0.33111317     0.15600
C107        C  0.54128240  0.94777820  0.03655498    -0.28600
C108        C  0.71090294  0.86405804  0.29395909    -0.28900
N109        N  0.74345888  0.86760360  0.33379796     0.16100
H110        H  0.72717665  0.85220013  0.25835464     0.18700
C111        C  0.71169381  0.84524823  0.04091441    -0.28900
H112        H  0.72809309  0.84111312  0.07780365     0.18700
H113        H  0.54713246  0.97558440  0.06692783     0.18700
H114        H  0.60499259  0.72576985  0.25469969     0.18800
H115        H  0.48039572  0.90724558  0.26682029     0.18700
C116        C  0.59713427  0.86124962  0.21948136     0.32600
C117        C  0.59292085  0.85766417  0.11467845     0.32600
C118        C  0.57529948  0.80934405  0.19494368    -0.03600
C119        C  0.56036478  0.90632513  0.19282726    -0.04400
C120        C  0.64982688  0.87416713  0.19170879    -0.04200
C121        C  0.57352416  0.80733192  0.14256203    -0.03600
C122        C  0.55346315  0.90005195  0.14102808    -0.04400
C123        C  0.64744832  0.87292979  0.13909312    -0.04600
C124        C  0.52646128  0.77893303  0.13191344    -0.29600
N125        N  0.50502025  0.75785064  0.17280317     0.16900
C126        C  0.53059316  0.78036538  0.21102776    -0.29600
H127        H  0.51516557  0.77792546  0.24838936     0.18800
C128        C  0.50354464  0.92590835  0.13194112    -0.28600
N129        N  0.49334255  0.96231108  0.16840053     0.15600
C130        C  0.53111387  0.95367158  0.20406986    -0.28600
C131        C  0.67931648  0.91578658  0.12333633    -0.28900
N132        N  0.70338664  0.93942732  0.16158447     0.16100
H133        H  0.68147021  0.93249562  0.08642332     0.18700
C134        C  0.68207758  0.91862792  0.20245049    -0.28900
H135        H  0.68468041  0.93997614  0.23726354     0.18700
H136        H  0.53687952  0.97940245  0.23566530     0.18700
H137        H  0.50556763  0.77705917  0.09679576     0.18800
H138        H  0.47658298  0.91857401  0.10131513     0.18700
C139        C  0.09458831  0.58632937  0.28049348     0.32600
C140        C  0.09296342  0.58646999  0.05248053     0.32600
C141        C  0.08874922  0.64116644  0.30692650    -0.03600
C142        C  0.05431100  0.54817412  0.30700860    -0.04400
C143        C  0.14861888  0.56308463  0.30680630    -0.04200
C144        C  0.08893751  0.64158625  0.02610810    -0.03600
C145        C  0.05165296  0.54929903  0.02605713    -0.04400
C146        C  0.14595034  0.56157590  0.02642647    -0.04200
C147        C  0.11322404  0.68970547  0.03997144    -0.29600
N148        N  0.11757556  0.72237034  0.33229892     0.16900
C149        C  0.11129657  0.69000026  0.29301408    -0.29600
H150        H  0.12433952  0.70143686  0.25638512     0.18800
C151        C  0.04179584  0.49499520  0.03900344    -0.28600
N152        N  0.03192188  0.46398658  0.33374316     0.15600
C153        C  0.04441178  0.49398931  0.29403876    -0.28600
C154        C  0.19396063  0.53418590  0.04075119    -0.28900
N155        N  0.22903406  0.52708389  0.33380785     0.16100
H156        H  0.20696007  0.52436382  0.07794903     0.18700
C157        C  0.19845721  0.53824975  0.29299817    -0.28900
H158        H  0.21229515  0.52888484  0.25596785     0.18700
H159        H  0.05012601  0.47546919  0.25814533     0.18700
H160        H  0.12580597  0.70108707  0.07676144     0.18800
H161        H  0.04820728  0.47627256  0.07471770     0.18700
C162        C  0.08575648  0.59458420  0.21909298     0.32600
C163        C  0.08537684  0.59435826  0.11379200     0.32600
C164        C  0.14052531  0.58990294  0.19225802    -0.03600
C165        C  0.04849449  0.55315156  0.19291078    -0.04400
C166        C  0.06096708  0.64808066  0.19280112    -0.04200
C167        C  0.14042583  0.58953773  0.14035085    -0.03600
C168        C  0.04820185  0.55329722  0.14017179    -0.04400
C169        C  0.06087689  0.64778354  0.13974203    -0.04200
C170        C  0.18932356  0.61216353  0.12646873    -0.29600
N171        N  0.22097547  0.62005095  0.16606878     0.16900
C172        C  0.18909023  0.61338465  0.20568096    -0.29600
H173        H  0.20076993  0.62649324  0.24222694     0.18800
C174        C  0.99421188  0.54267753  0.12704415    -0.28600
N175        N  0.96433003  0.52988158  0.16660790     0.15600
C176        C  0.99468824  0.54181953  0.20626158    -0.28600
C177        C  0.03570342  0.69709821  0.12519876    -0.28900
N178        N  0.02421378  0.72826145  0.16550280     0.16100
H179        H  0.02657781  0.71032105  0.08794767     0.18700
C180        C  0.03579775  0.69791345  0.20641187    -0.28900
H181        H  0.02659496  0.71198290  0.24339037     0.18700
H182        H  0.97635953  0.54680887  0.24230715     0.18700
H183        H  0.20142352  0.62376376  0.08960909     0.18800
H184        H  0.97537679  0.54879576  0.09134085     0.18700
O185        O  0.91842865  0.92592821  0.03943372    -0.69200
O186        O  0.06111277  0.98453424  0.03754663    -0.69400
O187        O  0.95935601  0.02988368  0.03835855    -0.69200
O188        O  0.02265095  0.88585635  0.03897879    -0.69300
O189        O  0.02003318  0.88831150  0.29109613    -0.69200
O190        O  0.97118950  0.03783368  0.29179013    -0.69200
O191        O  0.06838073  0.98231098  0.28990867    -0.69200
O192        O  0.92040669  0.93909068  0.29219088    -0.69400
V193        V  0.98956380  0.95681354  0.03705347     1.35200
V194        V  0.99434273  0.96226837  0.29277194     1.35200
C195        C  0.89693583  0.92847129  0.33242463     0.80100
C196        C  0.09482046  0.98639983  0.32947905     0.80100
C197        C  0.95325553  0.05633508  0.99859400     0.80000
C198        C  0.03525400  0.86260302  0.99901964     0.80000
O199        O  0.93091053  0.06734525  0.20534939    -0.69200
O200        O  0.98859542  0.92104948  0.20398960    -0.69400
O201        O  0.03349967  0.02346499  0.20590516    -0.69200
O202        O  0.88847848  0.97032010  0.20280589    -0.69300
O203        O  0.88961137  0.97442597  0.12274428    -0.69200
O204        O  0.03596859  0.02243359  0.12604166    -0.69200
O205        O  0.98793464  0.92148740  0.12431100    -0.69200
O206        O  0.93499612  0.07000586  0.12536820    -0.69400
V207        V  0.96121560  0.99524698  0.20303408     1.35200
V208        V  0.96287303  0.99667086  0.12615848     1.35200
C209        C  0.91946880  0.09141328  0.16547801     0.80100
C210        C  0.99443898  0.89489792  0.16403645     0.80100
C211        C  0.05844562  0.03447559  0.16641639     0.80000
C212        C  0.86356957  0.96772050  0.16218348     0.80000
O213        O  0.56439912  0.43261783  0.04267412    -0.69200
O214        O  0.41425364  0.47962923  0.04218115    -0.69400
O215        O  0.47087219  0.38294381  0.04264931    -0.69200
O216        O  0.51193981  0.53178786  0.04269360    -0.69300
O217        O  0.52272169  0.53504571  0.29424180    -0.69200
O218        O  0.47203660  0.38927358  0.29570388    -0.69200
O219        O  0.42125758  0.48882290  0.29482230    -0.69200
O220        O  0.56840764  0.43337031  0.29475598    -0.69400
V221        V  0.49001878  0.45740568  0.04106851     1.35200
V222        V  0.49575954  0.46241639  0.29638874     1.35200
C223        C  0.59140576  0.42053487  0.33481312     0.80100
C224        C  0.39513553  0.49588710  0.33465362     0.80100
C225        C  0.46668763  0.35747435  0.00254493     0.80000
C226        C  0.52248090  0.55613153  0.00285217     0.80000
O227        O  0.43731983  0.42324338  0.12734358    -0.69200
O228        O  0.48078585  0.57159580  0.13026147    -0.69400
O229        O  0.53614512  0.47409080  0.12916387    -0.69200
O230        O  0.38688175  0.52307850  0.12783730    -0.69300
O231        O  0.38531508  0.52129878  0.20793998    -0.69200
O232        O  0.53499998  0.47216972  0.20889308    -0.69200
O233        O  0.47933524  0.56954826  0.21038664    -0.69200
O234        O  0.43601802  0.42164063  0.20720964    -0.69400
V235        V  0.46060044  0.49723649  0.13013904     1.35200
V236        V  0.45932183  0.49551670  0.20706152     1.35200
C237        C  0.42697727  0.39794920  0.16676192     0.80100
C238        C  0.48323350  0.59636233  0.17098237     0.80100
C239        C  0.56191557  0.46714853  0.16918891     0.80000
C240        C  0.36301140  0.53494551  0.16770887     0.80000
C241        C  0.27356258  0.59660048  0.16661356    -0.10700
C242        C  0.31432091  0.56814617  0.16729286    -0.12200
C243        C  0.00547884  0.83553209  0.16400791    -0.10700
C244        C  0.01276820  0.78572276  0.16475364    -0.12200
C245        C  0.33607163  0.50768233  0.33448693    -0.10700
C246        C  0.28638040  0.51538084  0.33414049    -0.12200
C247        C  0.09895442  0.77438152  0.00011168    -0.10700
C248        C  0.07054882  0.81522390  0.99925189    -0.12200
C249        C  0.49060972  0.70313384  0.17364882    -0.10700
C250        C  0.48671447  0.65435218  0.17262289    -0.12200
C251        C  0.75758160  0.95525889  0.16018858    -0.10700
C252        C  0.80606229  0.96112530  0.16079813    -0.12200
C253        C  0.56249210  0.65661359  0.00296511    -0.10700
C254        C  0.54462496  0.61066548  0.00311573    -0.12200
C255        C  0.79823087  0.88462138  0.33323729    -0.10700
C256        C  0.84336455  0.90431444  0.33295660    -0.12200
C257        C  0.40413115  0.34378197  0.16571401    -0.10700
C258        C  0.38581807  0.29806173  0.16543513    -0.12200
C259        C  0.15418875  0.08470451  0.16741405    -0.10700
C260        C  0.11044815  0.06201758  0.16725648    -0.12200
C261        C  0.46431287  0.29941195  0.00236955    -0.10700
C262        C  0.46293594  0.25041988  0.00176849    -0.12200
C263        C  0.20141879  0.99454717  0.32719674    -0.10700
C264        C  0.15270324  0.99029548  0.32815771    -0.12200
C265        C  0.88550523  0.13972203  0.16573125    -0.10700
C266        C  0.85702375  0.18052712  0.16657714    -0.12200
C267        C  0.67062413  0.44659521  0.16875628    -0.10700
C268        C  0.62107897  0.45556702  0.16937797    -0.12200
C269        C  0.94135119  0.11546166  0.99909625    -0.10700
C270        C  0.93453065  0.16528359  0.99981669    -0.12200
C271        C  0.63972384  0.38674295  0.33469909    -0.10700
C272        C  0.68061484  0.35845995  0.33402904    -0.12200
C273        C  0.86843864  0.36155985  0.38612541     0.32600
C274        C  0.86889844  0.36257349  0.61393745     0.32600
C275        C  0.81365284  0.36613965  0.35936000    -0.03600
C276        C  0.90607000  0.40241715  0.35979454    -0.04400
C277        C  0.89302338  0.30796976  0.36018609    -0.04200
C278        C  0.81403870  0.36663887  0.64085661    -0.03600
C279        C  0.90632777  0.40391084  0.64015055    -0.04400
C280        C  0.89413554  0.30943906  0.63977266    -0.04200
C281        C  0.76549857  0.34280449  0.62750571    -0.29600
N282        N  0.73331882  0.33522078  0.33354727     0.16900
C283        C  0.76523704  0.34248947  0.37302228    -0.29600
H284        H  0.75372289  0.32959628  0.40967646     0.18800
C285        C  0.96036665  0.41481023  0.62679813    -0.28600
N286        N  0.99083384  0.42669741  0.66639309     0.15600
C287        C  0.96010371  0.41278197  0.37325132    -0.28600
C288        C  0.92134036  0.26123586  0.62539135    -0.28900
N289        N  0.93223114  0.22905095  0.33352373     0.16100
H290        H  0.93118170  0.24831229  0.58818626     0.18700
C291        C  0.91953514  0.25914969  0.37426043    -0.28900
H292        H  0.92909984  0.24572813  0.41138230     0.18700
H293        H  0.97828749  0.40737812  0.40931921     0.18700
H294        H  0.75379173  0.32975269  0.59094594     0.18800
H295        H  0.97871301  0.40947191  0.59078664     0.18700
C296        C  0.85985372  0.37027915  0.44740959     0.32600
C297        C  0.86014286  0.37050069  0.55268381     0.32600
C298        C  0.86551698  0.31558499  0.47416479    -0.03600
C299        C  0.90041540  0.40849129  0.47361432    -0.04400
C300        C  0.80590270  0.39391948  0.47360124    -0.04200
C301        C  0.86582892  0.31561263  0.52604631    -0.03600
C302        C  0.90045379  0.40862492  0.52628280    -0.04400
C303        C  0.80609690  0.39399854  0.52670046    -0.04200
C304        C  0.84382787  0.26637651  0.53981598    -0.29600
N305        N  0.83653201  0.23467501  0.50016839     0.16900
C306        C  0.84295471  0.26661287  0.46059312    -0.29600
H307        H  0.83036242  0.25465611  0.42396737     0.18800
C308        C  0.91067927  0.46269698  0.53946805    -0.28600
N309        N  0.92323261  0.49281780  0.49989411     0.15600
C310        C  0.91092839  0.46248963  0.46029832    -0.28600
C311        C  0.75625030  0.41844600  0.54095763    -0.28900
N312        N  0.72514532  0.42944310  0.50046471     0.16100
H313        H  0.74265262  0.42751987  0.57810972     0.18700
C314        C  0.75583622  0.41829641  0.45969890    -0.28900
H315        H  0.74182372  0.42715836  0.42262839     0.18700
H316        H  0.90569656  0.48071856  0.42423424     0.18700
H317        H  0.83193221  0.25420911  0.57657769     0.18800
H318        H  0.90494015  0.48119073  0.57536239     0.18700
C319        C  0.35801455  0.09478880  0.38515013     0.32600
C320        C  0.36071937  0.09782848  0.61342164     0.32600
C321        C  0.37486528  0.14862973  0.36045983    -0.03600
C322        C  0.39876811  0.05386672  0.35833679    -0.04400
C323        C  0.30667292  0.07719933  0.35763401    -0.04200
C324        C  0.37336577  0.15216264  0.63848540    -0.03600
C325        C  0.40752106  0.06292557  0.63993124    -0.04400
C326        C  0.31037456  0.07607332  0.64066698    -0.04200
C327        C  0.41533312  0.18574085  0.62367607    -0.29600
N328        N  0.43934013  0.20795923  0.66268089     0.16900
C329        C  0.41834031  0.17984908  0.37595420    -0.29600
H330        H  0.43504270  0.18209174  0.41287615     0.18800
C331        C  0.45362939  0.03184878  0.62779630    -0.28600
N332        N  0.46404451  0.99637753  0.66475956     0.15600
C333        C  0.42644545  0.00524660  0.36807564    -0.28600
C334        C  0.28336017  0.02852837  0.62921926    -0.28900
N335        N  0.26073452  0.00711259  0.66949719     0.16100
H336        H  0.28267958  0.00792858  0.59392570     0.18700
C337        C  0.27722927  0.03095273  0.36862583    -0.28900
H338        H  0.27522228  0.01017350  0.40377260     0.18700
H339        H  0.41983318  0.97837205  0.39876987     0.18700
H340        H  0.43200628  0.18953681  0.58687187     0.18800
H341        H  0.47910047  0.03606960  0.59577933     0.18700
C342        C  0.35109806  0.10041026  0.55212733     0.32600
C343        C  0.35371326  0.10182739  0.44677677     0.32600
C344        C  0.35333300  0.15799852  0.52563313    -0.03600
C345        C  0.39407938  0.06493399  0.52527139    -0.04400
C346        C  0.29887746  0.08024950  0.52573379    -0.04200
C347        C  0.35379747  0.15863978  0.47308468    -0.03600
C348        C  0.40212613  0.07377241  0.47529226    -0.04400
C349        C  0.29997688  0.08066020  0.47268312    -0.04200
C350        C  0.34824841  0.21331109  0.45914080    -0.29600
N351        N  0.34794948  0.24526323  0.49974730     0.16900
C352        C  0.34523515  0.21247696  0.53972250    -0.29600
H353        H  0.33805966  0.22831705  0.57644703     0.18800
C354        C  0.44776064  0.04193457  0.46339258    -0.28600
N355        N  0.45308784  0.00210402  0.49745688     0.15600
C356        C  0.41527969  0.01246220  0.53251485    -0.28600
C357        C  0.24468902  0.08713316  0.45921646    -0.28900
N358        N  0.21202736  0.08331807  0.49901366     0.16100
H359        H  0.22845688  0.09778909  0.42328162     0.18700
C360        C  0.24385016  0.08463207  0.53934692    -0.28900
H361        H  0.22721046  0.09182971  0.57581135     0.18700
H362        H  0.40499023  0.98411043  0.56152706     0.18700
H363        H  0.34485609  0.22985284  0.42225958     0.18800
H364        H  0.47607287  0.04805570  0.43341602     0.18700
C365        C  0.60383596  0.85364966  0.38622782     0.32600
C366        C  0.60273339  0.85309594  0.61437009     0.32600
C367        C  0.60005029  0.79613433  0.35936611    -0.03600
C368        C  0.56156913  0.89013790  0.35936142    -0.04400
C369        C  0.65654513  0.87238385  0.35992257    -0.04200
C370        C  0.60323971  0.79676698  0.64184192    -0.03600
C371        C  0.55478015  0.88166387  0.64306846    -0.04400
C372        C  0.65680571  0.87488472  0.63914286    -0.04200
C373        C  0.60861325  0.74166940  0.62923804    -0.29600
N374        N  0.60763000  0.71074773  0.67050979     0.16900
C375        C  0.60673256  0.74122512  0.37265180    -0.29600
H376        H  0.61419105  0.72457912  0.40902346     0.18800
C377        C  0.50873246  0.91293712  0.63113163    -0.28600
N378        N  0.50351288  0.95332028  0.66462580     0.15600
C379        C  0.54010025  0.94249506  0.36674896    -0.28600
C380        C  0.71170469  0.86936370  0.62415649    -0.28900
N381        N  0.74550138  0.87314270  0.66313556     0.16100
H382        H  0.72690513  0.85975543  0.58762389     0.18700
C383        C  0.71136019  0.86694369  0.37391481    -0.28900
H384        H  0.72759976  0.86006255  0.41058612     0.18700
H385        H  0.54987252  0.97063685  0.39606632     0.18700
H386        H  0.61299247  0.72406939  0.59286082     0.18800
H387        H  0.48009728  0.90615292  0.60154210     0.18700
C388        C  0.59783016  0.86005994  0.55263049     0.32600
C389        C  0.59558383  0.85760935  0.44765677     0.32600
C390        C  0.58573008  0.80522466  0.52717455    -0.03600
C391        C  0.55347043  0.89759880  0.52640191    -0.04400
C392        C  0.64741406  0.88256521  0.52552489    -0.04200
C393        C  0.58573323  0.80374189  0.47440728    -0.03600
C394        C  0.54807059  0.89138269  0.47433827    -0.04400
C395        C  0.64578116  0.88234779  0.47316436    -0.04600
C396        C  0.54395254  0.76896174  0.46182571    -0.29600
N397        N  0.52251767  0.74678971  0.50206004     0.16900
C398        C  0.54369770  0.77138973  0.54130331    -0.29600
H399        H  0.52546468  0.76853554  0.57757822     0.18800
C400        C  0.50183255  0.92207060  0.46201996    -0.28600
N401        N  0.49259495  0.95908105  0.49804518     0.15600
C402        C  0.52841706  0.94815666  0.53482471    -0.28600
C403        C  0.67201799  0.92961119  0.45900363    -0.28900
N404        N  0.69476779  0.95385171  0.49782567     0.16100
H405        H  0.67185722  0.94827343  0.42282771     0.18700
C406        C  0.67442660  0.92996193  0.53787469    -0.28900
H407        H  0.67585046  0.94933354  0.57370507     0.18700
H408        H  0.53665376  0.97552026  0.56488706     0.18700
H409        H  0.52521961  0.76463528  0.42590021     0.18800
H410        H  0.47625962  0.91723894  0.43015949     0.18700
C411        C  0.09538590  0.58852303  0.61386884     0.32600
C412        C  0.09453601  0.58701201  0.38586659     0.32600
C413        C  0.08969813  0.64336575  0.64044000    -0.03600
C414        C  0.05492551  0.55054588  0.64025657    -0.04400
C415        C  0.14945548  0.56504942  0.64006908    -0.04200
C416        C  0.08857711  0.64159001  0.35882343    -0.03600
C417        C  0.05418153  0.54854195  0.35972533    -0.04400
C418        C  0.14851637  0.56342395  0.35992356    -0.04200
C419        C  0.11058106  0.69094591  0.37215245    -0.29600
N420        N  0.11978545  0.72406345  0.66594558     0.16900
C421        C  0.11222194  0.69222569  0.62648969    -0.29600
H422        H  0.12435102  0.70402954  0.58969327     0.18800
C423        C  0.04389005  0.49457124  0.37324071    -0.28600
N424        N  0.03194357  0.46641653  0.66656521     0.15600
C425        C  0.04450387  0.49655934  0.62701413    -0.28600
C426        C  0.19815439  0.53867942  0.37429046    -0.28900
N427        N  0.23033510  0.52965402  0.66684353     0.16100
H428        H  0.21165827  0.52958188  0.41147075     0.18700
C429        C  0.19961077  0.54083712  0.62611500    -0.28900
H430        H  0.21359430  0.53190224  0.58905497     0.18700
H431        H  0.05018497  0.47808303  0.59111250     0.18700
H432        H  0.12303393  0.70328742  0.40870527     0.18800
H433        H  0.04914361  0.47649163  0.40936118     0.18700
C434        C  0.08658979  0.59645278  0.55248542     0.32600
C435        C  0.08636902  0.59565630  0.44717703     0.32600
C436        C  0.14145100  0.59192728  0.52571310    -0.03600
C437        C  0.04898457  0.55510172  0.52643575    -0.04400
C438        C  0.06178382  0.64959665  0.52610618    -0.04200
C439        C  0.14140015  0.59152233  0.47384137    -0.03600
C440        C  0.04899263  0.55473046  0.47369296    -0.04400
C441        C  0.06152311  0.64904963  0.47298807    -0.04200
C442        C  0.18991155  0.61518782  0.46010322    -0.29600
N443        N  0.22186732  0.62275386  0.49958947     0.16900
C444        C  0.18983603  0.61595500  0.53910906    -0.29600
H445        H  0.20126672  0.62934339  0.57563977     0.18800
C446        C  0.99491996  0.54422799  0.46041217    -0.28600
N447        N  0.96449548  0.53239254  0.49999249     0.15600
C448        C  0.99479794  0.54457520  0.53965443    -0.28600
C449        C  0.03456243  0.69736801  0.45852139    -0.28900
N450        N  0.02241471  0.72811963  0.49888926     0.16100
H451        H  0.02437946  0.71008850  0.42133283     0.18700
C452        C  0.03541449  0.69857216  0.53985081    -0.28900
H453        H  0.02613946  0.71247743  0.57688567     0.18700
H454        H  0.97638169  0.55010722  0.57562540     0.18700
H455        H  0.20134870  0.62803029  0.42340818     0.18800
H456        H  0.97658790  0.54963717  0.42440253     0.18700
O457        O  0.92210014  0.93803357  0.37209350    -0.69200
O458        O  0.06982183  0.98361766  0.37005834    -0.69400
O459        O  0.97169502  0.03740947  0.37158285    -0.69200
O460        O  0.02248840  0.88895753  0.37118287    -0.69300
O461        O  0.02694501  0.89164258  0.62412997    -0.69200
O462        O  0.97567643  0.04020470  0.62429448    -0.69200
O463        O  0.07395844  0.98633283  0.62577725    -0.69200
O464        O  0.92622008  0.94070954  0.62273553    -0.69400
V465        V  0.99578920  0.96236049  0.36973054     1.35200
V466        V  0.99993718  0.96505358  0.62569941     1.35200
C467        C  0.90044498  0.93142844  0.66216028     0.80100
C468        C  0.09892078  0.98805394  0.66642672     0.80100
C469        C  0.96551482  0.06386217  0.33186913     0.80000
C470        C  0.03377118  0.86540968  0.33102386     0.80000
O471        O  0.93055309  0.06710799  0.53852751    -0.69200
O472        O  0.98260783  0.91907646  0.53720032    -0.69400
O473        O  0.03139487  0.01844473  0.53819636    -0.69200
O474        O  0.88360470  0.97238535  0.53708728    -0.69300
O475        O  0.88342217  0.97623655  0.45702076    -0.69200
O476        O  0.03263087  0.01669772  0.45828077    -0.69200
O477        O  0.98029803  0.91906631  0.45742071    -0.69200
O478        O  0.93371722  0.06918964  0.45844552    -0.69400
V479        V  0.95771307  0.99391426  0.53624781     1.35200
V480        V  0.95816735  0.99487057  0.45929514     1.35200
C481        C  0.91962971  0.09136651  0.49862948     0.80100
C482        C  0.98773381  0.89293559  0.49722207     0.80100
C483        C  0.05652399  0.02727018  0.49834102     0.80000
C484        C  0.85756849  0.97141493  0.49691565     0.80000
O485        O  0.56892215  0.43450409  0.37487155    -0.69200
O486        O  0.42141801  0.48989083  0.37458086    -0.69400
O487        O  0.47252057  0.39062123  0.37582588    -0.69200
O488        O  0.52283505  0.53614034  0.37418473    -0.69300
O489        O  0.52535529  0.53931408  0.63064284    -0.69200
O490        O  0.47392092  0.39433462  0.62674526    -0.69200
O491        O  0.42352389  0.49372795  0.62863904    -0.69200
O492        O  0.57066445  0.43745988  0.62904385    -0.69400
V493        V  0.49605753  0.46349644  0.37332447     1.35200
V494        V  0.49799171  0.46691941  0.63033362     1.35200
C495        C  0.59197769  0.42100747  0.66887217     0.80100
C496        C  0.39702949  0.50037225  0.66836087     0.80100
C497        C  0.46778016  0.36441181  0.33620519     0.80000
C498        C  0.53402684  0.55936636  0.33394081     0.80000
O499        O  0.43190683  0.41725077  0.46193826    -0.69200
O500        O  0.47960126  0.56390840  0.46169504    -0.69400
O501        O  0.53245593  0.46579705  0.46161909    -0.69200
O502        O  0.38396002  0.51801448  0.46183655    -0.69300
O503        O  0.38607299  0.52284812  0.54177206    -0.69200
O504        O  0.53130305  0.46080934  0.54123099    -0.69200
O505        O  0.48482513  0.56196029  0.54172115    -0.69200
O506        O  0.42739767  0.41917057  0.54174743    -0.69400
V507        V  0.45732420  0.49045490  0.46326361     1.35200
V508        V  0.45765781  0.49039695  0.54013699     1.35200
C509        C  0.41817867  0.39452248  0.50176744     0.80100
C510        C  0.48742812  0.58828525  0.50191420     0.80100
C511        C  0.55820777  0.45699783  0.50140554     0.80000
C512        C  0.36243955  0.53430346  0.50161487     0.80000
C513        C  0.27417133  0.59825797  0.50004604    -0.10700
C514        C  0.31459788  0.56911033  0.50088387    -0.12200
C515        C  0.99979930  0.83419405  0.49727157    -0.10700
C516        C  0.00879523  0.78487569  0.49808270    -0.12200
C517        C  0.33778731  0.51191666  0.66790065    -0.10700
C518        C  0.28793103  0.51888514  0.66726032    -0.12200
C519        C  0.09389599  0.77487423  0.33146924    -0.10700
C520        C  0.06601128  0.81604511  0.33082352    -0.12200
C521        C  0.50403087  0.69353147  0.50288078    -0.10700
C522        C  0.49581365  0.64549860  0.50259849    -0.12200
C523        C  0.75012723  0.96659527  0.49675875    -0.10700
C524        C  0.79922218  0.96904865  0.49665796    -0.12200
C525        C  0.58301368  0.65550699  0.33275300    -0.10700
C526        C  0.56088388  0.61158153  0.33331486    -0.12200
C527        C  0.80067472  0.88927866  0.66152529    -0.10700
C528        C  0.84633221  0.90805373  0.66116161    -0.12200
C529        C  0.39086918  0.34251670  0.50147553    -0.10700
C530        C  0.36836545  0.29877363  0.50080161    -0.12200
C531        C  0.15661661  0.06819826  0.49846959    -0.10700
C532        C  0.11074047  0.05013539  0.49845643    -0.12200
C533        C  0.46181235  0.30674592  0.33744347    -0.10700
C534        C  0.45686720  0.25811885  0.33840428    -0.12200
C535        C  0.20584999  0.99335391  0.66892564    -0.10700
C536        C  0.15696504  0.99056620  0.66779805    -0.12200
C537        C  0.88728462  0.14064746  0.49893282    -0.10700
C538        C  0.85956653  0.18191354  0.49963549    -0.12200
C539        C  0.66748989  0.43976371  0.50084932    -0.10700
C540        C  0.61757666  0.44619430  0.50132497    -0.12200
C541        C  0.95427217  0.12281093  0.33242811    -0.10700
C542        C  0.94570993  0.17222934  0.33317530    -0.12200
C543        C  0.63989405  0.38641072  0.66826258    -0.10700
C544        C  0.68093268  0.35822534  0.66759432    -0.12200
C545        C  0.86943441  0.36224437  0.71912048     0.32600
C546        C  0.86892010  0.35898185  0.94716055     0.32600
C547        C  0.81432570  0.36665455  0.69271611    -0.03600
C548        C  0.90660453  0.40366243  0.69289488    -0.04400
C549        C  0.89431330  0.30919610  0.69282654    -0.04200
C550        C  0.81394530  0.36589252  0.97386086    -0.03600
C551        C  0.90783512  0.39848839  0.97354373    -0.04400
C552        C  0.89113441  0.30459216  0.97345596    -0.04200
C553        C  0.76415376  0.34451577  0.96048442    -0.29600
N554        N  0.73389475  0.33540873  0.66723905     0.16900
C555        C  0.76586250  0.34312681  0.70663560    -0.29600
H556        H  0.75431522  0.33068706  0.74340847     0.18800
C557        C  0.96194659  0.40851495  0.96024611    -0.28600
N558        N  0.99198310  0.42187894  0.99969621     0.15600
C559        C  0.96075208  0.41423760  0.70599893    -0.28600
C560        C  0.91440762  0.25412110  0.95949392    -0.28900
N561        N  0.93420620  0.23091376  0.66587041     0.16100
H562        H  0.92375340  0.24026399  0.92248923     0.18700
C563        C  0.92124341  0.26061250  0.70673894    -0.28900
H564        H  0.93075257  0.24704337  0.74383896     0.18700
H565        H  0.97949765  0.40821781  0.74175881     0.18700
H566        H  0.75187486  0.33184133  0.92396622     0.18800
H567        H  0.98034546  0.40278560  0.92429404     0.18700
C568        C  0.86140739  0.36972778  0.78043761     0.32600
C569        C  0.86154743  0.36825317  0.88572851     0.32600
C570        C  0.86628398  0.31456455  0.80640130    -0.03600
C571        C  0.90244164  0.40689876  0.80691408    -0.04400
C572        C  0.80799156  0.39377328  0.80686241    -0.04200
C573        C  0.86600165  0.31373436  0.85831187    -0.03600
C574        C  0.90294027  0.40609979  0.85968387    -0.04400
C575        C  0.80827782  0.39333170  0.85993610    -0.04200
C576        C  0.84169499  0.26526398  0.87091909    -0.29600
N577        N  0.83454960  0.23415281  0.83084417     0.16900
C578        C  0.84279561  0.26640486  0.79182827    -0.29600
H579        H  0.83073481  0.25525884  0.75484017     0.18800
C580        C  0.91421222  0.45996896  0.87327672    -0.28600
N581        N  0.92516958  0.49086391  0.83363466     0.15600
C582        C  0.91236149  0.46111088  0.79400922    -0.28600
C583        C  0.75975034  0.41993211  0.87441893    -0.28900
N584        N  0.72892577  0.43197549  0.83408528     0.16100
H585        H  0.74693541  0.43014055  0.91155870     0.18700
C586        C  0.75875606  0.41968466  0.79313042    -0.28900
H587        H  0.74483584  0.42906151  0.75611778     0.18700
H588        H  0.90580361  0.48001219  0.75838932     0.18700
H589        H  0.82758285  0.25351812  0.90713367     0.18800
H590        H  0.90974953  0.47785750  0.90954735     0.18700
C591        C  0.36120461  0.09904163  0.71826088     0.32600
C592        C  0.35861467  0.09752357  0.94655259     0.32600
C593        C  0.37519579  0.15222829  0.69114625    -0.03600
C594        C  0.40336621  0.05859366  0.69221236    -0.04400
C595        C  0.30990742  0.07838020  0.69302307    -0.04200
C596        C  0.38035844  0.14742986  0.97341378    -0.03600
C597        C  0.39696058  0.05380985  0.97278624    -0.04400
C598        C  0.30395491  0.08493422  0.97213944    -0.04200
C599        C  0.42731758  0.17484865  0.96054789    -0.29600
N600        N  0.45180182  0.19486774  0.00036523     0.16900
C601        C  0.41959302  0.18403434  0.70280678    -0.29600
H602        H  0.44109830  0.18527274  0.73763091     0.18800
C603        C  0.44792698  0.02927476  0.96437666    -0.28600
N604        N  0.45924783  0.99379274  0.00131326     0.15600
C605        C  0.42954645  0.00883412  0.70210101    -0.28600
C606        C  0.27034848  0.04269225  0.95830434    -0.28900
N607        N  0.24551598  0.02199740  0.99766029     0.16100
H608        H  0.26769288  0.02405678  0.92219465     0.18700
C609        C  0.28098443  0.03343279  0.70830473    -0.28900
H610        H  0.27736632  0.01814527  0.74562621     0.18700
H611        H  0.42204573  0.98192105  0.73262005     0.18700
H612        H  0.44628220  0.17644973  0.92453782     0.18800
H613        H  0.47530169  0.03744837  0.93423941     0.18700
C614        C  0.35183719  0.10247105  0.88489808     0.32600
C615        C  0.35672093  0.10738912  0.77959066     0.32600
C616        C  0.37149811  0.15750955  0.86046912    -0.03600
C617        C  0.38296482  0.05618132  0.85642954    -0.04400
C618        C  0.29596786  0.10051402  0.85690051    -0.04200
C619        C  0.37314369  0.16007449  0.80758200    -0.03600
C620        C  0.39295423  0.06518097  0.80681560    -0.04400
C621        C  0.29847802  0.10167552  0.80431036    -0.04200
C622        C  0.36640428  0.21543186  0.79565058    -0.29600
N623        N  0.36742706  0.24609474  0.83671801     0.16900
C624        C  0.36434439  0.21211892  0.87563326    -0.29600
H625        H  0.35470316  0.22690417  0.91230482     0.18800
C626        C  0.44485771  0.04255377  0.79967094    -0.28600
N627        N  0.45359924  0.00390130  0.83422277     0.15600
C628        C  0.41331246  0.00944590  0.86784950    -0.28600
C629        C  0.24434221  0.10721585  0.78829633    -0.28900
N630        N  0.21025246  0.10485957  0.82746594     0.16100
H631        H  0.22983148  0.11230425  0.75083457     0.18700
C632        C  0.24071041  0.10572333  0.86900451    -0.28900
H633        H  0.22269170  0.11040147  0.90520104     0.18700
H634        H  0.40632124  0.98081435  0.89737262     0.18700
H635        H  0.35768455  0.23317601  0.75991380     0.18800
H636        H  0.47434206  0.05293939  0.77165731     0.18700
C637        C  0.60723009  0.85683352  0.71981115     0.32600
C638        C  0.59888033  0.85022288  0.94782229     0.32600
C639        C  0.60409506  0.79867612  0.69445932    -0.03600
C640        C  0.56356070  0.89155332  0.69282484    -0.04400
C641        C  0.65919367  0.87600825  0.69212136    -0.04200
C642        C  0.57748279  0.79848557  0.97447154    -0.03600
C643        C  0.56427291  0.89407005  0.97450269    -0.04400
C644        C  0.65652697  0.85149187  0.97438879    -0.04200
C645        C  0.58095163  0.74319520  0.96152150    -0.29600
N646        N  0.57796400  0.71189918  0.00208560     0.16900
C647        C  0.60972768  0.74444034  0.70997076    -0.29600
H648        H  0.61445588  0.72953744  0.74732567     0.18800
C649        C  0.51217157  0.91620563  0.96699801    -0.28600
N650        N  0.50217450  0.95417314  0.00189764     0.15600
C651        C  0.54187400  0.94395306  0.69936764    -0.28600
C652        C  0.71117918  0.84411221  0.96026084    -0.28900
N653        N  0.74389258  0.84566298  0.00044284     0.16100
H654        H  0.72714796  0.83825305  0.92340030     0.18700
C655        C  0.71477228  0.87091132  0.70413369    -0.28900
H656        H  0.73265598  0.86209053  0.73980342     0.18700
H657        H  0.55285205  0.97340656  0.72719700     0.18700
H658        H  0.58902253  0.72589374  0.92546681     0.18800
H659        H  0.48351246  0.90597695  0.93820258     0.18700
C660        C  0.59672434  0.85979154  0.88639577     0.32600
C661        C  0.59858803  0.86065425  0.78134064     0.32600
C662        C  0.57672636  0.80901110  0.85891085    -0.03600
C663        C  0.56059444  0.90543899  0.85974576    -0.04400
C664        C  0.65085983  0.87394501  0.86163089    -0.04200
C665        C  0.57966390  0.80851273  0.80646639    -0.03600
C666        C  0.55649608  0.90120759  0.80747317    -0.04400
C667        C  0.65114499  0.87626947  0.80894396    -0.04600
C668        C  0.53569531  0.77823756  0.79093320    -0.29600
N669        N  0.50911904  0.75801776  0.82960493     0.16900
C670        C  0.52931045  0.78159431  0.86984551    -0.29600
H671        H  0.50744797  0.78187081  0.90454277     0.18800
C672        C  0.50787112  0.92908365  0.79682085    -0.28600
N673        N  0.49610604  0.96390723  0.83401683     0.15600
C674        C  0.53106856  0.95275653  0.87120771    -0.28600
C675        C  0.68184111  0.92159978  0.79793061    -0.28900
N676        N  0.70543431  0.94121428  0.83834426     0.16100
H677        H  0.68268246  0.94354332  0.76333081     0.18700
C678        C  0.68361987  0.91620986  0.87705066    -0.28900
H679        H  0.68739663  0.93200042  0.91417540     0.18700
H680        H  0.53598015  0.97866722  0.90286341     0.18700
H681        H  0.52069771  0.77427384  0.75354763     0.18800
H682        H  0.48103007  0.92245187  0.76606938     0.18700
C683        C  0.09309764  0.58719383  0.94730079     0.32600
C684        C  0.09539607  0.58875272  0.71927318     0.32600
C685        C  0.08909843  0.64186376  0.97424417    -0.03600
C686        C  0.05144552  0.54974640  0.97327090    -0.04400
C687        C  0.14611957  0.56185612  0.97335773    -0.04200
C688        C  0.08993151  0.64353189  0.69239471    -0.03600
C689        C  0.05487352  0.55063976  0.69294483    -0.04400
C690        C  0.14936231  0.56506124  0.69319773    -0.04200
C691        C  0.11299504  0.69240595  0.70570116    -0.29600
N692        N  0.12155321  0.72141353  0.00050371     0.16900
C693        C  0.11380017  0.68984808  0.96089889    -0.29600
H694        H  0.12702992  0.70130914  0.92433191     0.18800
C695        C  0.04428822  0.49664509  0.70620081    -0.28600
N696        N  0.02969945  0.46488128  0.99934726     0.15600
C697        C  0.04069625  0.49570209  0.95974504    -0.28600
C698        C  0.19921488  0.54048666  0.70734469    -0.28900
N699        N  0.22406873  0.52131212  0.00018792     0.16100
H700        H  0.21275653  0.53095392  0.74441123     0.18700
C701        C  0.19445517  0.53458474  0.95934907    -0.28900
H702        H  0.20795619  0.52504124  0.92223629     0.18700
H703        H  0.04589181  0.47758949  0.92363097     0.18700
H704        H  0.12616902  0.70421505  0.74219957     0.18800
H705        H  0.04959952  0.47831825  0.74221547     0.18700
C706        C  0.08570976  0.59644719  0.88603193     0.32600
C707        C  0.08657820  0.59698159  0.78068297     0.32600
C708        C  0.14081935  0.59081982  0.85973081    -0.03600
C709        C  0.04777615  0.55636284  0.85942230    -0.04400
C710        C  0.06240240  0.65052631  0.85997154    -0.04200
C711        C  0.14129051  0.59143545  0.80781588    -0.03600
C712        C  0.04820215  0.55628425  0.80676276    -0.04400
C713        C  0.06268973  0.65069658  0.80684996    -0.04200
C714        C  0.19045971  0.61430729  0.79490811    -0.29600
N715        N  0.22208417  0.62036839  0.83483676     0.16900
C716        C  0.18993013  0.61270232  0.87410346    -0.29600
H717        H  0.20174738  0.62421760  0.91105953     0.18800
C718        C  0.99419531  0.54525976  0.79341860    -0.28600
N719        N  0.96377364  0.53302857  0.83307466     0.15600
C720        C  0.99365760  0.54630641  0.87253028    -0.28600
C721        C  0.03808078  0.70047562  0.79281307    -0.28900
N722        N  0.02697603  0.73125026  0.83344445     0.16100
H723        H  0.02880269  0.71422278  0.75575399     0.18700
C724        C  0.03809711  0.70045742  0.87409149    -0.28900
H725        H  0.02919265  0.71428087  0.91121135     0.18700
H726        H  0.97497237  0.55244469  0.90830468     0.18700
H727        H  0.20251873  0.62782241  0.75858787     0.18800
H728        H  0.97598391  0.55010717  0.75729864     0.18700
O729        O  0.92364433  0.94186197  0.70261869    -0.69200
O730        O  0.07227765  0.98371258  0.70589863    -0.69400
O731        O  0.97521650  0.03988478  0.70407164    -0.69200
O732        O  0.02296078  0.89038544  0.70419325    -0.69300
O733        O  0.01911402  0.88378703  0.95897111    -0.69200
O734        O  0.96090745  0.03046548  0.95860908    -0.69200
O735        O  0.06095071  0.98125560  0.95742275    -0.69200
O736        O  0.91632617  0.92797850  0.95952433    -0.69400
V737        V  0.99791643  0.96438234  0.70264743     1.35200
V738        V  0.98855049  0.95615645  0.96015776     1.35200
C739        C  0.89383631  0.91509759  0.99971329     0.80100
C740        C  0.08628396  0.98859806  0.99720549     0.80100
C741        C  0.96934837  0.06622126  0.66426200     0.80000
C742        C  0.03754032  0.86783231  0.66437041     0.80000
O743        O  0.93591350  0.07139297  0.86984659    -0.69200
O744        O  0.99237921  0.92453608  0.87153584    -0.69400
O745        O  0.03786220  0.02608257  0.86839166    -0.69200
O746        O  0.89275285  0.97475283  0.87344148    -0.69300
O747        O  0.89010791  0.97149745  0.79333631    -0.69200
O748        O  0.03483488  0.02482369  0.78850613    -0.69200
O749        O  0.99030583  0.92262767  0.79177876    -0.69200
O750        O  0.93208877  0.06865237  0.78979483    -0.69400
V751        V  0.96539248  0.99881538  0.86922775     1.35200
V752        V  0.96270589  0.99665513  0.79232002     1.35200
C753        C  0.92023255  0.09255552  0.82968535     0.80100
C754        C  0.99789345  0.89743212  0.83202684     0.80100
C755        C  0.06003659  0.03684749  0.82755673     0.80000
C756        C  0.86601690  0.96821505  0.83430321     0.80000
O757        O  0.56837115  0.43255939  0.70901415    -0.69200
O758        O  0.42301680  0.49374542  0.70838880    -0.69400
O759        O  0.47003336  0.39279458  0.70682710    -0.69200
O760        O  0.52668986  0.53611589  0.71052060    -0.69300
O761        O  0.51427412  0.53119511  0.96280425    -0.69200
O762        O  0.46881056  0.38357323  0.96254567    -0.69200
O763        O  0.41522473  0.48189519  0.96240676    -0.69200
O764        O  0.56361786  0.43074139  0.96255721    -0.69400
V765        V  0.49677163  0.46468660  0.70723240     1.35200
V766        V  0.49015939  0.45748741  0.96410146     1.35200
C767        C  0.58741226  0.41940126  0.00260044     0.80100
C768        C  0.38862635  0.48690415  0.00212640     0.80100
C769        C  0.46683640  0.36823113  0.66611151     0.80000
C770        C  0.53779515  0.56125540  0.67117190     0.80000
O771        O  0.43699863  0.42369356  0.79710120    -0.69200
O772        O  0.48522007  0.56997551  0.79470190    -0.69400
O773        O  0.53728539  0.47112437  0.79619789    -0.69200
O774        O  0.38939552  0.52484908  0.79584905    -0.69300
O775        O  0.38959835  0.52600746  0.87596019    -0.69200
O776        O  0.53800556  0.47348868  0.87598824    -0.69200
O777        O  0.48513623  0.57196089  0.87485412    -0.69200
O778        O  0.43798392  0.42503993  0.87700525    -0.69400
V779        V  0.46257451  0.49679885  0.79751857     1.35200
V780        V  0.46297789  0.49837587  0.87448020     1.35200
C781        C  0.42721942  0.40010938  0.83750252     0.80100
C782        C  0.48916182  0.59653723  0.83422938     0.80100
C783        C  0.56375061  0.46574259  0.83603447     0.80000
C784        C  0.36639115  0.53831567  0.83578870     0.80000
C785        C  0.27520989  0.59787017  0.83500704    -0.10700
C786        C  0.31695410  0.57071390  0.83541269    -0.12200
C787        C  0.00930474  0.83839740  0.83287134    -0.10700
C788        C  0.01621780  0.78868143  0.83330373    -0.12200
C789        C  0.32996846  0.49865090  0.00155718    -0.10700
C790        C  0.28069919  0.50752333  0.00070552    -0.12200
C791        C  0.09724391  0.77703572  0.66574791    -0.10700
C792        C  0.06983996  0.81851240  0.66509877    -0.12200
C793        C  0.49632001  0.70299760  0.83086801    -0.10700
C794        C  0.49341171  0.65425661  0.83275035    -0.12200
C795        C  0.75995819  0.95615358  0.83794513    -0.10700
C796        C  0.80852307  0.96145021  0.83640559    -0.12200
C797        C  0.58771292  0.65701667  0.67196004    -0.10700
C798        C  0.56546411  0.61310529  0.67228766    -0.12200
C799        C  0.79781630  0.86536309  0.00014283    -0.10700
C800        C  0.84187892  0.88744921  0.00010910    -0.12200
C801        C  0.40310389  0.34644962  0.83847970    -0.10700
C802        C  0.38388766  0.30106367  0.83835823    -0.12200
C803        C  0.15635520  0.08546321  0.82567349    -0.10700
C804        C  0.11221100  0.06372169  0.82568054    -0.12200
C805        C  0.45973045  0.31086729  0.66456456    -0.10700
C806        C  0.45430357  0.26239227  0.66321515    -0.12200
C807        C  0.19171244  0.00489667  0.99671055    -0.10700
C808        C  0.14346804  0.99748082  0.99666876    -0.12200
C809        C  0.88584693  0.14050120  0.82961404    -0.10700
C810        C  0.85752912  0.18137368  0.83015972    -0.12200
C811        C  0.67195503  0.44483510  0.83489208    -0.10700
C812        C  0.62251585  0.45341481  0.83571960    -0.12200
C813        C  0.95748900  0.12499346  0.66459716    -0.10700
C814        C  0.94830111  0.17427473  0.66531868    -0.12200
C815        C  0.63743964  0.38800000  0.00232798    -0.10700
C816        C  0.67931369  0.36109846  0.00105272    -0.12200
loop_ 
_geom_bond_atom_site_label_1 
_geom_bond_atom_site_label_2 
_geom_bond_distance 
_geom_bond_site_symmetry_2 
_ccdc_geom_bond_type 
C1            C3   1.522       .  S
C1            C5   1.591       .  S
C1            C4   1.554       .  S
C1           C24   1.688       .  S
C2            C6   1.525       .  S
C2            C8   1.583       .  S
C2            C7   1.552       .  S
C2           C25   1.682       .  S
C3           C11   1.380       .  A
C3          C550   1.405   1_554  A
C4           C15   1.399       .  A
C4          C551   1.424   1_554  A
C5           C19   1.397       .  A
C5          C552   1.438   1_554  A
C6            C9   1.383       .  A
C6          C275   1.404       .  A
C7           C13   1.400       .  A
C7          C276   1.427       .  A
C8           C16   1.391       .  A
C8          C277   1.436       .  A
C9           H22   1.080       .  S
C9          N282   1.338       .  A
N10          C11   1.335       .  A
N10         C553   1.339   1_554  A
N10         C816   1.394       .  S
C11          H12   1.080       .  S
C13          H23   1.078       .  S
C13          N14   1.340       .  A
N14         C287   1.340       .  A
N14         N152   1.416   1_655  S
C15          H21   1.078       .  S
C15         N558   1.343   1_554  A
C16          H18   1.080       .  S
C16         N289   1.354       .  A
N17          C19   1.356       .  A
N17         C560   1.355   1_554  A
N17         C270   1.424   1_554  S
C19          H20   1.079       .  S
C24          C26   1.524       .  S
C24          C28   1.593       .  S
C24          C27   1.550       .  S
C25          C29   1.526       .  S
C25          C31   1.586       .  S
C25          C30   1.546       .  S
C26          C34   1.381       .  A
C26          C29   1.404       .  A
C27          C38   1.398       .  A
C27          C30   1.427       .  A
C28          C42   1.397       .  A
C28          C31   1.437       .  A
C29          C32   1.382       .  A
C30          C36   1.396       .  A
C31          C39   1.394       .  A
C32          H45   1.080       .  S
C32          N33   1.339       .  A
N33          C34   1.338       .  A
N33         C266   1.394       .  S
C34          H35   1.080       .  S
C36          H46   1.078       .  S
C36          N37   1.337       .  A
N37          C38   1.340       .  A
N37         N175   1.414       .  S
C38          H44   1.079       .  S
C39          H41   1.080       .  S
C39          N40   1.355       .  A
N40          C42   1.357       .  A
N40         C267   1.422       .  S
C42          H43   1.080       .  S
C47          C49   1.544       .  S
C47          C51   1.528       .  S
C47          C50   1.580       .  S
C47          C71   1.681       .  S
C48          C52   1.533       .  S
C48          C54   1.539       .  S
C48          C53   1.571       .  S
C48          C70   1.679       .  S
C49          C57   1.390       .  A
C49         C596   1.418   1_554  A
C50          C61   1.377       .  A
C50         C597   1.423   1_554  A
C51          C65   1.387       .  A
C51         C598   1.428   1_554  A
C52          C55   1.391       .  A
C52         C321   1.425       .  A
C53          C59   1.377       .  A
C53         C322   1.420       .  A
C54          C62   1.387       .  A
C54         C323   1.421       .  A
C55          H68   1.079       .  S
C55          N56   1.330       .  A
N56         C329   1.332       .  A
N56         C534   1.392       .  S
C57          H58   1.080       .  S
C57         N600   1.333       .  A
C59          H69   1.073       .  S
C59          N60   1.348   1_545  A
N60         C333   1.346   1_565  A
N60         N106   1.405       .  S
C61          H67   1.073   1_545  S
C61         N604   1.343   1_545  A
C62          H64   1.081       .  S
C62          N63   1.333       .  A
N63         C337   1.332       .  A
N63         C263   1.390   1_545  S
C65          H66   1.081       .  S
C65         N607   1.331   1_554  A
C70          C72   1.582       .  S
C70          C74   1.562       .  S
C70          C73   1.553       .  S
C71          C75   1.551       .  S
C71          C77   1.588       .  S
C71          C76   1.528       .  S
C72          C80   1.402       .  A
C72          C75   1.433       .  A
C73          C84   1.378       .  A
C73          C76   1.385       .  A
C74          C88   1.390       .  A
C74          C77   1.426       .  A
C75          C78   1.395       .  A
C76          C82   1.383       .  A
C77          C85   1.395       .  A
C78          H91   1.079       .  S
C78          N79   1.338       .  A
N79          C80   1.342       .  A
N79         C258   1.412       .  S
C80          H81   1.078       .  S
C82          H92   1.081       .  S
C82          N83   1.342       .  A
N83          C84   1.344       .  A
N83         N129   1.406   1_545  S
C84          H90   1.079   1_545  S
C85          H87   1.078       .  S
C85          N86   1.351       .  A
N86          C88   1.349       .  A
N86         C259   1.414       .  S
C88          H89   1.079       .  S
C93          C95   1.583       .  S
C93          C97   1.563       .  S
C93          C96   1.555       .  S
C93         C117   1.676       .  S
C94          C98   1.559       .  S
C94         C100   1.584       .  S
C94          C99   1.548       .  S
C94         C116   1.676       .  S
C95         C103   1.402       .  A
C95         C642   1.435   1_554  A
C96         C107   1.381       .  A
C96         C643   1.385   1_554  A
C97         C111   1.392       .  A
C97         C644   1.421   1_554  A
C98         C101   1.390       .  A
C98         C367   1.425       .  A
C99         C105   1.374       .  A
C99         C368   1.383       .  A
C100        C108   1.402       .  A
C100        C369   1.432       .  A
C101        H114   1.079       .  S
C101        N102   1.348       .  A
N102        C375   1.350       .  A
N102        C525   1.413       .  S
C103        H104   1.079       .  S
C103        N646   1.343       .  A
C105        H115   1.079       .  S
C105        N106   1.343       .  A
N106        C379   1.344       .  A
C107        H113   1.078       .  S
C107        N650   1.344       .  A
C108        H110   1.078       .  S
C108        N109   1.343       .  A
N109        C383   1.339       .  A
N109        C255   1.412       .  S
C111        H112   1.079       .  S
C111        N653   1.348       .  A
C116        C118   1.540       .  S
C116        C120   1.530       .  S
C116        C119   1.576       .  S
C117        C121   1.530       .  S
C117        C123   1.541       .  S
C117        C122   1.566       .  S
C118        C126   1.388       .  A
C118        C121   1.418       .  A
C119        C130   1.376       .  A
C119        C122   1.420       .  A
C120        C134   1.391       .  A
C120        C123   1.425       .  A
C121        C124   1.389       .  A
C122        C128   1.379       .  A
C123        C131   1.390       .  A
C124        H137   1.080       .  S
C124        N125   1.333       .  A
N125        C126   1.335       .  A
N125        C249   1.393       .  S
C126        H127   1.081       .  S
C128        H138   1.076       .  S
C128        N129   1.347       .  A
N129        C130   1.347       .  A
C130        H136   1.073       .  S
C131        H133   1.081       .  S
C131        N132   1.330       .  A
N132        C134   1.329       .  A
N132        C251   1.389       .  S
C134        H135   1.079       .  S
C139        C141   1.522       .  S
C139        C143   1.589       .  S
C139        C142   1.550       .  S
C139        C162   1.686       .  S
C140        C144   1.525       .  S
C140        C146   1.580       .  S
C140        C145   1.551       .  S
C140        C163   1.679       .  S
C141        C149   1.381       .  A
C141        C416   1.404       .  A
C142        C153   1.398       .  A
C142        C417   1.426       .  A
C143        C157   1.395       .  A
C143        C418   1.437       .  A
C144        C147   1.384       .  A
C144        C685   1.403   1_554  A
C145        C151   1.400       .  A
C145        C686   1.428   1_554  A
C146        C154   1.388       .  A
C146        C687   1.435   1_554  A
C147        H160   1.080       .  S
C147        N692   1.338       .  A
N148        C149   1.336       .  A
N148        C419   1.337       .  A
N148        C519   1.393       .  S
C149        H150   1.080       .  S
C151        H161   1.078       .  S
C151        N696   1.339   1_554  A
N152        C153   1.340       .  A
N152        C423   1.341       .  A
C153        H159   1.079       .  S
C154        H156   1.080       .  S
C154        N699   1.353       .  A
N155        C157   1.356       .  A
N155        C426   1.355       .  A
N155        C246   1.421       .  S
C157        H158   1.079       .  S
C162        C164   1.523       .  S
C162        C166   1.593       .  S
C162        C165   1.551       .  S
C163        C167   1.525       .  S
C163        C169   1.585       .  S
C163        C168   1.547       .  S
C164        C172   1.380       .  A
C164        C167   1.404       .  A
C165        C176   1.398   1_455  A
C165        C168   1.427       .  A
C166        C180   1.398       .  A
C166        C169   1.435       .  A
C167        C170   1.382       .  A
C168        C174   1.396   1_455  A
C169        C177   1.394       .  A
C170        H183   1.080       .  S
C170        N171   1.338       .  A
N171        C172   1.337       .  A
N171        C241   1.391       .  S
C172        H173   1.080       .  S
C174        H184   1.078       .  S
C174        N175   1.337       .  A
N175        C176   1.341       .  A
C176        H182   1.078       .  S
C177        H179   1.079       .  S
C177        N178   1.355       .  A
N178        C180   1.357       .  A
N178        C244   1.424       .  S
C180        H181   1.079       .  S
O185        V193   1.914       .  S
O185        C739   1.262   1_554  A
O186        V193   1.891   1_455  S
O186        C740   1.258   1_554  A
O187        V193   1.913   1_545  S
O187        C197   1.262   1_554  A
O188        V193   1.893   1_455  S
O188        C198   1.255   1_554  A
O189        V194   1.897   1_455  S
O189        C470   1.258       .  A
O190        V194   1.916   1_545  S
O190        C469   1.263       .  A
O191        V194   1.888   1_455  S
O191        C196   1.255       .  A
O192        V194   1.907       .  S
O192        C195   1.260       .  A
V193        V738   2.080   1_554  T
V194        V465   2.082       .  T
C195        O457   1.262       .  A
C195        C256   1.450       .  S
C196        O458   1.259       .  A
C196        C264   1.419       .  S
C197        O734   1.264       .  A
C197        C269   1.466       .  S
C198        O733   1.259       .  A
C198        C248   1.424       .  S
O199        V207   1.893   1_545  S
O199        C209   1.256       .  A
O200        V207   1.915       .  S
O200        C210   1.262       .  A
O201        V207   1.914   1_445  S
O201        C211   1.262       .  A
O202        V207   1.894       .  S
O202        C212   1.258       .  A
O203        V208   1.886       .  S
O203        C212   1.255       .  A
O204        V208   1.909   1_445  S
O204        C211   1.261       .  A
O205        V208   1.921       .  S
O205        C210   1.263       .  A
O206        V208   1.899   1_545  S
O206        C209   1.258       .  A
V207        V208   2.080       .  T
C209        C265   1.423       .  S
C210        C243   1.468   1_655  S
C211        C260   1.454       .  S
C212        C252   1.418       .  S
O213        V221   1.898       .  S
O213        C767   1.259       .  A
O214        V221   1.913       .  S
O214        C768   1.261       .  A
O215        V221   1.893       .  S
O215        C225   1.256       .  A
O216        V221   1.910       .  S
O216        C226   1.261       .  A
O217        V222   1.912       .  S
O217        C498   1.262       .  A
O218        V222   1.895       .  S
O218        C497   1.258       .  A
O219        V222   1.913       .  S
O219        C224   1.261       .  A
O220        V222   1.892       .  S
O220        C223   1.256       .  A
V221        V766   2.082   1_554  T
V222        V493   2.081       .  T
C223        O485   1.257       .  A
C223        C271   1.421       .  S
C224        O486   1.263       .  A
C224        C245   1.462       .  S
C225        O762   1.258   1_554  A
C225        C261   1.422       .  S
C226        O761   1.262   1_554  A
C226        C254   1.453       .  S
O227        V235   1.913       .  S
O227        C237   1.262       .  A
O228        V235   1.897       .  S
O228        C238   1.259       .  A
O229        V235   1.914       .  S
O229        C239   1.261       .  A
O230        V235   1.891       .  S
O230        C240   1.256       .  A
O231        V236   1.896       .  S
O231        C240   1.258       .  A
O232        V236   1.919       .  S
O232        C239   1.263       .  A
O233        V236   1.890       .  S
O233        C238   1.256       .  A
O234        V236   1.909       .  S
O234        C237   1.260       .  A
V235        V236   2.081       .  T
C237        C257   1.452       .  S
C238        C250   1.423       .  S
C239        C268   1.464       .  S
C240        C242   1.420       .  S
C241        C242   1.198       .  T
C243        C244   1.226       .  T
C245        C246   1.222       .  T
C247        N692   1.393       .  S
C247        C248   1.199   1_554  T
C249        C250   1.199       .  T
C251        C252   1.196       .  T
C253        N646   1.414       .  S
C253        C254   1.216       .  T
C255        C256   1.215       .  T
C257        C258   1.215       .  T
C259        C260   1.217       .  T
C261        C262   1.199       .  T
C262        N600   1.393       .  S
C263        C264   1.197       .  T
C265        C266   1.200       .  T
C267        C268   1.223       .  T
C269        C270   1.225       .  T
C271        C272   1.198       .  T
C272        N282   1.392       .  S
C273        C275   1.522       .  S
C273        C277   1.589       .  S
C273        C276   1.549       .  S
C273        C296   1.684       .  S
C274        C278   1.525       .  S
C274        C280   1.584       .  S
C274        C279   1.553       .  S
C274        C297   1.681       .  S
C275        C283   1.381       .  A
C276        C287   1.398       .  A
C277        C291   1.394       .  A
C278        C547   1.403       .  A
C278        C281   1.383       .  A
C279        C548   1.427       .  A
C279        C285   1.401       .  A
C280        C549   1.435       .  A
C280        C288   1.391       .  A
C281        H294   1.080       .  S
C281        N554   1.338       .  A
N282        C283   1.337       .  A
C283        H284   1.080       .  S
C285        H295   1.078       .  S
C285        N286   1.340       .  A
N286        C559   1.339       .  A
N286        N424   1.416   1_655  S
C287        H293   1.078       .  S
C288        H290   1.080       .  S
C288        N561   1.354       .  A
N289        C291   1.356       .  A
N289        C542   1.418       .  S
C291        H292   1.080       .  S
C296        C298   1.523       .  S
C296        C300   1.590       .  S
C296        C299   1.552       .  S
C297        C301   1.526       .  S
C297        C303   1.588       .  S
C297        C302   1.549       .  S
C298        C306   1.382       .  A
C298        C301   1.403       .  A
C299        C310   1.399       .  A
C299        C302   1.425       .  A
C300        C314   1.396       .  A
C300        C303   1.436       .  A
C301        C304   1.383       .  A
C302        C308   1.398       .  A
C303        C311   1.395       .  A
C304        H317   1.080       .  S
C304        N305   1.338       .  A
N305        C306   1.337       .  A
N305        C538   1.392       .  S
C306        H307   1.080       .  S
C308        H318   1.078       .  S
C308        N309   1.340       .  A
N309        C310   1.341       .  A
N309        N447   1.416       .  S
C310        H316   1.078       .  S
C311        H313   1.079       .  S
C311        N312   1.355       .  A
N312        C314   1.356       .  A
N312        C539   1.423       .  S
C314        H315   1.079       .  S
C319        C321   1.542       .  S
C319        C323   1.530       .  S
C319        C322   1.568       .  S
C319        C343   1.679       .  S
C320        C324   1.530       .  S
C320        C326   1.541       .  S
C320        C325   1.579       .  S
C320        C342   1.675       .  S
C321        C329   1.389       .  A
C322        C333   1.376       .  A
C323        C337   1.389       .  A
C324        C593   1.425       .  A
C324        C327   1.390       .  A
C325        C594   1.422       .  A
C325        C331   1.379       .  A
C326        C595   1.417       .  A
C326        C334   1.387       .  A
C327        H340   1.080       .  S
C327        N328   1.330       .  A
N328        C601   1.330       .  A
N328        C806   1.390       .  S
C329        H330   1.081       .  S
C331        H341   1.073       .  S
C331        N332   1.343   1_545  A
N332        C605   1.344   1_565  A
N332        N378   1.407       .  S
C333        H339   1.074   1_545  S
C334        H336   1.080       .  S
C334        N335   1.335       .  A
N335        C609   1.333       .  A
N335        C535   1.391   1_545  S
C337        H338   1.080       .  S
C342        C344   1.582       .  S
C342        C346   1.553       .  S
C342        C345   1.526       .  S
C343        C347   1.560       .  S
C343        C349   1.587       .  S
C343        C348   1.554       .  S
C344        C352   1.394       .  A
C344        C347   1.421       .  A
C345        C356   1.383       .  A
C345        C348   1.384       .  A
C346        C360   1.394       .  A
C346        C349   1.435       .  A
C347        C350   1.392       .  A
C348        C354   1.379       .  A
C349        C357   1.403       .  A
C350        H363   1.079       .  S
C350        N351   1.348       .  A
N351        C352   1.349       .  A
N351        C530   1.413       .  S
C352        H353   1.079       .  S
C354        H364   1.079       .  S
C354        N355   1.344       .  A
N355        C356   1.342       .  A
N355        N401   1.407   1_545  S
C356        H362   1.081   1_545  S
C357        H359   1.079       .  S
C357        N358   1.344       .  A
N358        C360   1.340       .  A
N358        C531   1.412       .  S
C360        H361   1.079       .  S
C365        C367   1.588       .  S
C365        C369   1.551       .  S
C365        C368   1.528       .  S
C365        C389   1.676       .  S
C366        C370   1.564       .  S
C366        C372   1.586       .  S
C366        C371   1.554       .  S
C366        C388   1.683       .  S
C367        C375   1.395       .  A
C368        C379   1.384       .  A
C369        C383   1.393       .  A
C370        C639   1.424       .  A
C370        C373   1.392       .  A
C371        C640   1.385       .  A
C371        C377   1.380       .  A
C372        C641   1.434       .  A
C372        C380   1.403       .  A
C373        H386   1.078       .  S
C373        N374   1.349       .  A
N374        C647   1.350       .  A
N374        C797   1.414       .  S
C375        H376   1.078       .  S
C377        H387   1.079       .  S
C377        N378   1.343       .  A
N378        C651   1.342       .  A
C379        H385   1.081       .  S
C380        H382   1.079       .  S
C380        N381   1.344       .  A
N381        C655   1.341       .  A
N381        C527   1.415       .  S
C383        H384   1.080       .  S
C388        C390   1.543       .  S
C388        C392   1.531       .  S
C388        C391   1.569       .  S
C389        C393   1.528       .  S
C389        C395   1.544       .  S
C389        C394   1.579       .  S
C390        C398   1.390       .  A
C390        C393   1.428       .  A
C391        C402   1.382       .  A
C391        C394   1.423       .  A
C392        C406   1.390       .  A
C392        C395   1.417       .  A
C393        C396   1.389       .  A
C394        C400   1.378       .  A
C395        C403   1.391       .  A
C396        H409   1.080       .  S
C396        N397   1.330       .  A
N397        C398   1.332       .  A
N397        C521   1.390       .  S
C398        H399   1.080       .  S
C400        H410   1.073       .  S
C400        N401   1.344       .  A
N401        C402   1.346       .  A
C402        H408   1.075       .  S
C403        H405   1.080       .  S
C403        N404   1.334       .  A
N404        C406   1.333       .  A
N404        C523   1.396       .  S
C406        H407   1.080       .  S
C411        C413   1.524       .  S
C411        C415   1.591       .  S
C411        C414   1.549       .  S
C411        C434   1.685       .  S
C412        C416   1.525       .  S
C412        C418   1.587       .  S
C412        C417   1.552       .  S
C412        C435   1.683       .  S
C413        C421   1.382       .  A
C413        C688   1.405       .  A
C414        C425   1.398       .  A
C414        C689   1.425       .  A
C415        C429   1.397       .  A
C415        C690   1.437       .  A
C416        C419   1.382       .  A
C417        C423   1.399       .  A
C418        C426   1.394       .  A
C419        H432   1.080       .  S
N420        C691   1.338       .  A
N420        C421   1.337       .  A
N420        C791   1.392       .  S
C421        H422   1.080       .  S
C423        H433   1.078       .  S
N424        C695   1.341       .  A
N424        C425   1.339       .  A
C425        H431   1.078       .  S
C426        H428   1.079       .  S
N427        C698   1.355       .  A
N427        C429   1.356       .  A
N427        C518   1.423       .  S
C429        H430   1.079       .  S
C434        C436   1.524       .  S
C434        C438   1.587       .  S
C434        C437   1.554       .  S
C435        C439   1.526       .  S
C435        C441   1.585       .  S
C435        C440   1.549       .  S
C436        C444   1.382       .  A
C436        C439   1.403       .  A
C437        C448   1.401   1_455  A
C437        C440   1.427       .  A
C438        C452   1.394       .  A
C438        C441   1.437       .  A
C439        C442   1.384       .  A
C440        C446   1.399   1_455  A
C441        C449   1.392       .  A
C442        H455   1.080       .  S
C442        N443   1.339       .  A
N443        C444   1.338       .  A
N443        C513   1.395       .  S
C444        H445   1.080       .  S
C446        H456   1.078       .  S
C446        N447   1.339       .  A
N447        C448   1.341       .  A
C448        H454   1.079       .  S
C449        H451   1.080       .  S
C449        N450   1.354       .  A
N450        C452   1.355       .  A
N450        C516   1.418       .  S
C452        H453   1.080       .  S
O457        V465   1.912       .  S
O458        V465   1.895   1_455  S
O459        V465   1.911   1_545  S
O459        C469   1.261       .  A
O460        V465   1.892   1_455  S
O460        C470   1.256       .  A
O461        V466   1.895   1_455  S
O461        C742   1.258       .  A
O462        V466   1.914   1_545  S
O462        C741   1.261       .  A
O463        V466   1.894   1_455  S
O463        C468   1.258       .  A
O464        V466   1.913       .  S
O464        C467   1.262       .  A
V466        V737   2.082       .  T
C467        O729   1.262       .  A
C467        C528   1.454       .  S
C468        O730   1.256       .  A
C468        C536   1.420       .  S
C469        C541   1.459       .  S
C470        C520   1.422       .  S
O471        V479   1.891   1_545  S
O471        C481   1.256       .  A
O472        V479   1.911       .  S
O472        C482   1.260       .  A
O473        V479   1.913   1_445  S
O473        C483   1.262       .  A
O474        V479   1.899       .  S
O474        C484   1.259       .  A
O475        V480   1.894       .  S
O475        C484   1.257       .  A
O476        V480   1.909   1_445  S
O476        C483   1.261       .  A
O477        V480   1.916       .  S
O477        C482   1.262       .  A
O478        V480   1.896   1_545  S
O478        C481   1.258       .  A
V479        V480   2.082       .  T
C481        C537   1.421       .  S
C482        C515   1.458       .  S
C483        C532   1.451       .  S
C484        C524   1.427       .  S
O485        V493   1.896       .  S
O486        V493   1.916       .  S
O487        V493   1.888       .  S
O487        C497   1.256       .  A
O488        V493   1.910       .  S
O488        C498   1.261       .  A
O489        V494   1.909       .  S
O489        C770   1.261       .  A
O490        V494   1.887       .  S
O490        C769   1.256       .  A
O491        V494   1.915       .  S
O491        C496   1.262       .  A
O492        V494   1.896       .  S
O492        C495   1.257       .  A
V494        V765   2.081       .  T
C495        O757   1.258       .  A
C495        C543   1.424       .  S
C496        O758   1.263       .  A
C496        C517   1.466       .  S
C497        C533   1.422       .  S
C498        C526   1.452       .  S
O499        V507   1.911       .  S
O499        C509   1.262       .  A
O500        V507   1.891       .  S
O500        C510   1.258       .  A
O501        V507   1.915       .  S
O501        C511   1.262       .  A
O502        V507   1.896       .  S
O502        C512   1.257       .  A
O503        V508   1.899       .  S
O503        C512   1.258       .  A
O504        V508   1.919       .  S
O504        C511   1.264       .  A
O505        V508   1.889       .  S
O505        C510   1.257       .  A
O506        V508   1.911       .  S
O506        C509   1.261       .  A
V507        V508   2.079       .  T
C509        C529   1.452       .  S
C510        C522   1.419       .  S
C511        C540   1.466       .  S
C512        C514   1.425       .  S
C513        C514   1.201       .  T
C515        C516   1.219   1_655  T
C517        C518   1.224       .  T
C519        C520   1.199       .  T
C521        C522   1.197       .  T
C523        C524   1.202       .  T
C525        C526   1.216       .  T
C527        C528   1.217       .  T
C529        C530   1.216       .  T
C531        C532   1.215       .  T
C533        C534   1.198       .  T
C535        C536   1.198       .  T
C537        C538   1.199       .  T
C539        C540   1.224       .  T
C541        C542   1.220       .  T
C543        C544   1.200       .  T
C544        N554   1.393       .  S
C545        C547   1.524       .  S
C545        C549   1.585       .  S
C545        C548   1.550       .  S
C545        C568   1.679       .  S
C546        C550   1.529       .  S
C546        C552   1.589       .  S
C546        C551   1.548       .  S
C546        C569   1.686       .  S
C547        C555   1.382       .  A
C548        C559   1.400       .  A
C549        C563   1.393       .  A
C550        C553   1.385       .  A
C551        C557   1.397       .  A
C552        C560   1.396       .  A
C553        H566   1.080       .  S
N554        C555   1.337       .  A
C555        H556   1.080       .  S
C557        H567   1.079       .  S
C557        N558   1.340       .  A
N558        N696   1.417   1_655  S
C559        H565   1.078       .  S
C560        H562   1.079       .  S
N561        C563   1.355       .  A
N561        C814   1.417       .  S
C563        H564   1.080       .  S
C568        C570   1.522       .  S
C568        C572   1.585       .  S
C568        C571   1.547       .  S
C569        C573   1.526       .  S
C569        C575   1.584       .  S
C569        C574   1.558       .  S
C570        C578   1.381       .  A
C570        C573   1.404       .  A
C571        C582   1.398       .  A
C571        C574   1.427       .  A
C572        C586   1.393       .  A
C572        C575   1.436       .  A
C573        C576   1.383       .  A
C574        C580   1.402       .  A
C575        C583   1.391       .  A
C576        H589   1.080       .  S
C576        N577   1.338       .  A
N577        C578   1.336       .  A
N577        C810   1.392       .  S
C578        H579   1.080       .  S
C580        H590   1.078       .  S
C580        N581   1.343       .  A
N581        C582   1.337       .  A
N581        N719   1.416       .  S
C582        H588   1.078       .  S
C583        H585   1.079       .  S
C583        N584   1.353       .  A
N584        C586   1.355       .  A
N584        C811   1.417       .  S
C586        H587   1.080       .  S
C591        C593   1.540       .  S
C591        C595   1.525       .  S
C591        C594   1.573       .  S
C591        C615   1.675       .  S
C592        C596   1.528       .  S
C592        C598   1.542       .  S
C592        C597   1.570       .  S
C592        C614   1.680       .  S
C593        C601   1.388       .  A
C594        C605   1.384       .  A
C595        C609   1.386       .  A
C596        C599   1.389       .  A
C597        C603   1.384       .  A
C598        C606   1.388       .  A
C599        H612   1.080       .  S
C599        N600   1.332   1_556  A
C601        H602   1.079       .  S
C603        H613   1.076       .  S
C603        N604   1.347   1_546  A
N604        N650   1.407       .  S
C605        H611   1.075   1_545  S
C606        H608   1.080       .  S
C606        N607   1.332       .  A
N607        C807   1.390       .  S
C609        H610   1.081       .  S
C614        C616   1.586       .  S
C614        C618   1.562       .  S
C614        C617   1.550       .  S
C615        C619   1.556       .  S
C615        C621   1.581       .  S
C615        C620   1.529       .  S
C616        C624   1.403       .  A
C616        C619   1.432       .  A
C617        C628   1.379       .  A
C617        C620   1.383       .  A
C618        C632   1.390       .  A
C618        C621   1.424       .  A
C619        C622   1.396       .  A
C620        C626   1.382       .  A
C621        C629   1.394       .  A
C622        H635   1.078       .  S
C622        N623   1.341       .  A
N623        C624   1.344       .  A
N623        C802   1.414       .  S
C624        H625   1.079       .  S
C626        H636   1.080       .  S
C626        N627   1.342       .  A
N627        C628   1.344       .  A
N627        N673   1.405   1_545  S
C628        H634   1.079   1_545  S
C629        H631   1.079       .  S
C629        N630   1.349       .  A
N630        C632   1.348       .  A
N630        C803   1.412       .  S
C632        H633   1.078       .  S
C637        C639   1.582       .  S
C637        C641   1.557       .  S
C637        C640   1.529       .  S
C637        C661   1.680       .  S
C638        C642   1.559       .  S
C638        C644   1.581       .  S
C638        C643   1.527       .  S
C638        C660   1.678       .  S
C639        C647   1.394       .  A
C640        C651   1.383       .  A
C641        C655   1.397       .  A
C642        C645   1.396       .  A
C643        C649   1.383       .  A
C644        C652   1.395       .  A
C645        H658   1.079       .  S
C645        N646   1.341   1_556  A
C647        H648   1.079       .  S
C649        H659   1.081       .  S
C649        N650   1.341   1_556  A
C651        H657   1.081       .  S
C652        H654   1.079       .  S
C652        N653   1.350   1_556  A
N653        C799   1.414       .  S
C655        H656   1.078       .  S
C660        C662   1.538       .  S
C660        C664   1.530       .  S
C660        C663   1.577       .  S
C661        C665   1.528       .  S
C661        C667   1.542       .  S
C661        C666   1.575       .  S
C662        C670   1.386       .  A
C662        C665   1.420       .  A
C663        C674   1.381       .  A
C663        C666   1.421       .  A
C664        C678   1.388       .  A
C664        C667   1.426       .  A
C665        C668   1.386       .  A
C666        C672   1.382       .  A
C667        C675   1.388       .  A
C668        H681   1.081       .  S
C668        N669   1.333       .  A
N669        C670   1.333       .  A
N669        C793   1.390       .  S
C670        H671   1.080       .  S
C672        H682   1.074       .  S
C672        N673   1.344       .  A
N673        C674   1.342       .  A
C674        H680   1.074       .  S
C675        H677   1.079       .  S
C675        N676   1.331       .  A
N676        C678   1.331       .  A
N676        C795   1.390       .  S
C678        H679   1.081       .  S
C683        C685   1.523       .  S
C683        C687   1.584       .  S
C683        C686   1.555       .  S
C683        C706   1.682       .  S
C684        C688   1.526       .  S
C684        C690   1.589       .  S
C684        C689   1.551       .  S
C684        C707   1.686       .  S
C685        C693   1.382       .  A
C686        C697   1.403       .  A
C687        C701   1.391       .  A
C688        C691   1.383       .  A
C689        C695   1.399       .  A
C690        C698   1.395       .  A
C691        H704   1.080       .  S
N692        C693   1.337   1_554  A
C693        H694   1.080       .  S
C695        H705   1.078       .  S
N696        C697   1.341       .  A
C697        H703   1.078       .  S
C698        H700   1.079       .  S
N699        C701   1.354   1_554  A
N699        C790   1.414       .  S
C701        H702   1.080       .  S
C706        C708   1.525       .  S
C706        C710   1.589       .  S
C706        C709   1.545       .  S
C707        C711   1.527       .  S
C707        C713   1.588       .  S
C707        C712   1.555       .  S
C708        C716   1.382       .  A
C708        C711   1.404       .  A
C709        C720   1.396   1_455  A
C709        C712   1.424       .  A
C710        C724   1.395       .  A
C710        C713   1.437       .  A
C711        C714   1.383       .  A
C712        C718   1.400   1_455  A
C713        C721   1.394       .  A
C714        H727   1.080       .  S
C714        N715   1.338       .  A
N715        C716   1.337       .  A
N715        C785   1.394       .  S
C716        H717   1.080       .  S
C718        H728   1.078       .  S
C718        N719   1.343       .  A
N719        C720   1.338       .  A
C720        H726   1.078       .  S
C721        H723   1.079       .  S
C721        N722   1.355       .  A
N722        C724   1.355       .  A
N722        C788   1.421       .  S
C724        H725   1.079       .  S
O729        V737   1.910       .  S
O730        V737   1.891   1_455  S
O731        V737   1.912   1_545  S
O731        C741   1.261       .  A
O732        V737   1.893   1_455  S
O732        C742   1.257       .  A
O733        V738   1.901   1_455  S
O734        V738   1.920   1_545  S
O735        V738   1.889   1_455  S
O735        C740   1.257       .  A
O736        V738   1.911       .  S
O736        C739   1.262       .  A
C739        C800   1.454   1_556  S
C740        C808   1.419       .  S
C741        C813   1.457       .  S
C742        C792   1.422       .  S
O743        V751   1.896   1_545  S
O743        C753   1.258       .  A
O744        V751   1.915       .  S
O744        C754   1.263       .  A
O745        V751   1.908   1_445  S
O745        C755   1.261       .  A
O746        V751   1.887       .  S
O746        C756   1.256       .  A
O747        V752   1.893       .  S
O747        C756   1.258       .  A
O748        V752   1.912   1_445  S
O748        C755   1.261       .  A
O749        V752   1.913       .  S
O749        C754   1.262       .  A
O750        V752   1.894   1_545  S
O750        C753   1.257       .  A
V751        V752   2.082       .  T
C753        C809   1.422       .  S
C754        C787   1.462   1_655  S
C755        C804   1.450       .  S
C756        C796   1.419       .  S
O757        V765   1.896       .  S
O758        V765   1.917       .  S
O759        V765   1.892       .  S
O759        C769   1.258       .  A
O760        V765   1.914       .  S
O760        C770   1.262       .  A
O761        V766   1.912       .  S
O762        V766   1.895       .  S
O763        V766   1.908       .  S
O763        C768   1.259   1_556  A
O764        V766   1.892       .  S
O764        C767   1.256   1_556  A
C767        C815   1.424       .  S
C768        C789   1.452       .  S
C769        C805   1.418       .  S
C770        C798   1.453       .  S
O771        V779   1.910       .  S
O771        C781   1.261       .  A
O772        V779   1.889       .  S
O772        C782   1.256       .  A
O773        V779   1.912       .  S
O773        C783   1.261       .  A
O774        V779   1.896       .  S
O774        C784   1.257       .  A
O775        V780   1.897       .  S
O775        C784   1.258       .  A
O776        V780   1.914       .  S
O776        C783   1.262       .  A
O777        V780   1.893       .  S
O777        C782   1.258       .  A
O778        V780   1.911       .  S
O778        C781   1.261       .  A
V779        V780   2.082       .  T
C781        C801   1.453       .  S
C782        C794   1.418       .  S
C783        C812   1.457       .  S
C784        C786   1.425       .  S
C785        C786   1.200       .  T
C787        C788   1.222       .  T
C789        C790   1.216       .  T
C791        C792   1.199       .  T
C793        C794   1.197       .  T
C795        C796   1.197       .  T
C797        C798   1.217       .  T
C799        C800   1.217       .  T
C801        C802   1.217       .  T
C803        C804   1.215       .  T
C805        C806   1.197       .  T
C807        C808   1.197   1_545  T
C809        C810   1.199       .  T
C811        C812   1.219       .  T
C813        C814   1.219       .  T
C815        C816   1.200       .  T
