geometry optimzed in LAMMPS
_audit_creation_date              2020-12-01 
_audit_creation_method            'lammps2cif' 
_symmetry_space_group_name_H-M    'P1' 
_symmetry_Int_Tables_number       1 
_symmetry_cell_setting            triclinic 
loop_ 
_symmetry_equiv_pos_as_xyz 
  x,y,z 
_cell_length_a                    37.3281786 
_cell_length_b                    37.30995659248852 
_cell_length_c                    37.28193220660194 
_cell_angle_alpha                 89.87451746187966 
_cell_angle_beta                  89.94853986157469 
_cell_angle_gamma                 89.91286795716907 
loop_ 
_atom_site_label 
_atom_site_type_symbol 
_atom_site_fract_x 
_atom_site_fract_y 
_atom_site_fract_z 
_atom_site_charge 
O1          O  0.90618558  0.53680289  0.85564935    -0.71500
O2          O  0.85872772  0.46298174  0.90737919    -0.71800
O3          O  0.91027385  0.46469579  0.85711285    -0.71600
O4          O  0.85470386  0.53479407  0.90567560    -0.71600
O5          O  0.81390513  0.53135778  0.86428894    -0.71600
O6          O  0.86999541  0.46229308  0.81518462    -0.71600
O7          O  0.81820965  0.46012109  0.86570153    -0.71600
O8          O  0.86579117  0.53390222  0.81388525    -0.71700
V9          V  0.88171584  0.49975166  0.88061885     1.35200
V10         V  0.84281571  0.49694561  0.84053766     1.35200
C11         C  0.89414471  0.54795715  0.82595405     0.77700
C12         C  0.82996333  0.44950558  0.89571645     0.77700
C13         C  0.89968180  0.45174499  0.82766269     0.77600
C14         C  0.82459275  0.54453870  0.89355107     0.77600
O15         O  0.70020335  0.71770875  0.06594310    -0.71500
O16         O  0.75096257  0.66632620  0.99471700    -0.71800
O17         O  0.70000503  0.71753953  0.99456574    -0.71600
O18         O  0.75098585  0.66664215  0.06626307    -0.71600
O19         O  0.70981301  0.62555483  0.06672384    -0.71600
O20         O  0.65878401  0.67649934  0.99475063    -0.71600
O21         O  0.70966961  0.62539815  0.99463332    -0.71600
O22         O  0.65925574  0.67633913  0.06688359    -0.71700
V23         V  0.72473295  0.69121716  0.03033069     1.35200
V24         V  0.68515487  0.65172846  0.03066696     1.35200
C25         C  0.67109848  0.70584034  0.07845587     0.77700
C26         C  0.73936800  0.63681643  0.98295639     0.77700
C27         C  0.67036324  0.70611794  0.98297605     0.77600
C28         C  0.73911565  0.63746228  0.07874287     0.77600
O29         O  0.49450223  0.78183368  0.86293874    -0.71500
O30         O  0.56762609  0.83145642  0.81186262    -0.71800
O31         O  0.56600188  0.77945065  0.86248460    -0.71600
O32         O  0.49613966  0.83361491  0.81215667    -0.71600
O33         O  0.49714227  0.87399254  0.85404560    -0.71600
O34         O  0.56767950  0.82026009  0.90391447    -0.71600
O35         O  0.56908618  0.87179225  0.85375883    -0.71600
O36         O  0.49585797  0.82254784  0.90442671    -0.71700
V37         V  0.53108606  0.80737355  0.83815781     1.35200
V38         V  0.53240479  0.84636164  0.87820035     1.35200
C39         C  0.48312841  0.79345399  0.89272910     0.77700
C40         C  0.58055559  0.86032081  0.82400171     0.77700
C41         C  0.57841850  0.79041516  0.89200088     0.77600
C42         C  0.48499602  0.86317531  0.82434650     0.77600
O43         O  0.66843742  0.03698638  0.71808314    -0.71500
O44         O  0.71698697  0.96507575  0.66525593    -0.71800
O45         O  0.66624700  0.96498255  0.71634013    -0.71600
O46         O  0.71887856  0.03673075  0.66735983    -0.71600
O47         O  0.76047240  0.03410874  0.70807833    -0.71600
O48         O  0.70727315  0.96256065  0.75754434    -0.71600
O49         O  0.75859691  0.96277537  0.70588844    -0.71600
O50         O  0.70925903  0.03422399  0.75954061    -0.71700
V51         V  0.69344846  0.00083380  0.69261540     1.35200
V52         V  0.73309141  0.99843661  0.73203214     1.35200
C53         C  0.68041175  0.04771626  0.74784969     0.77700
C54         C  0.74649025  0.95234347  0.67598958     0.77700
C55         C  0.67741881  0.95192293  0.74558813     0.77600
C56         C  0.74881376  0.04719398  0.67904277     0.77600
O57         O  0.99403845  0.72590600  0.70323273    -0.71500
O58         O  0.06455191  0.67560862  0.75648072    -0.71800
O59         O  0.06544991  0.72587148  0.70447797    -0.71600
O60         O  0.99295683  0.67521599  0.75537694    -0.71600
O61         O  0.99373752  0.63375279  0.71456592    -0.71600
O62         O  0.06635102  0.68392880  0.66414254    -0.71600
O63         O  0.06568571  0.63419371  0.71558255    -0.71600
O64         O  0.99444957  0.68387600  0.66293829    -0.71700
V65         V  0.02918518  0.69984780  0.72912629     1.35200
V66         V  0.02997376  0.65975278  0.69013035     1.35200
C67         C  0.98284271  0.71380706  0.67367999     0.77700
C68         C  0.07719472  0.64638969  0.74497383     0.77700
C69         C  0.07821955  0.71344770  0.67561293     0.77600
C70         C  0.98139141  0.64552557  0.74384238     0.77600
O71         O  0.86377472  0.78334283  0.56618239    -0.71500
O72         O  0.81338333  0.83319892  0.49317585    -0.71800
O73         O  0.86424135  0.78126259  0.49472981    -0.71600
O74         O  0.81335541  0.83505434  0.56482695    -0.71600
O75         O  0.85578316  0.87482214  0.56504996    -0.71600
O76         O  0.90477801  0.82289147  0.49252035    -0.71600
O77         O  0.85435022  0.87445645  0.49296690    -0.71600
O78         O  0.90589223  0.82338842  0.56428321    -0.71700
V79         V  0.83945845  0.80902573  0.52964332     1.35200
V80         V  0.87936718  0.84811982  0.52865145     1.35200
C81         C  0.89372017  0.79452448  0.57722833     0.77700
C82         C  0.82478574  0.86281839  0.48128522     0.77700
C83         C  0.89364296  0.79261715  0.48223831     0.77600
C84         C  0.82606453  0.86393810  0.57713118     0.77600
O85         O  0.50003182  0.18080413  0.90379062    -0.71500
O86         O  0.57351757  0.13026220  0.85510421    -0.71800
O87         O  0.57188776  0.18097106  0.90571424    -0.71600
O88         O  0.50158636  0.13005408  0.85328786    -0.71600
O89         O  0.50267409  0.17075692  0.81162406    -0.71600
O90         O  0.57271408  0.22247999  0.86484750    -0.71600
O91         O  0.57467428  0.17126812  0.81375338    -0.71600
O92         O  0.50082326  0.22198491  0.86259099    -0.71700
V93         V  0.53679430  0.15635584  0.87862741     1.35200
V94         V  0.53771785  0.19585485  0.83896154     1.35200
C95         C  0.48788706  0.21003399  0.89162578     0.77700
C96         C  0.58654519  0.14191951  0.82602789     0.77700
C97         C  0.58419992  0.21046080  0.89448027     0.77600
C98         C  0.49004138  0.14158938  0.82356957     0.77600
O99         O  0.71794186  0.37035074  0.00097488    -0.71500
O100        O  0.66440593  0.31912065  0.07073103    -0.71800
O101        O  0.71570865  0.36950353  0.07289303    -0.71600
O102        O  0.66669961  0.32026372  0.99881523    -0.71600
O103        O  0.70680803  0.27801757  0.00026362    -0.71600
O104        O  0.75715861  0.32857609  0.07311858    -0.71600
O105        O  0.70517460  0.27752013  0.07177575    -0.71600
O106        O  0.75867463  0.32870694  0.00148661    -0.71700
V107        V  0.69202294  0.34398081  0.03591746     1.35200
V108        V  0.73119523  0.30399745  0.03668999     1.35200
C109        C  0.74748744  0.35840494  0.98946230     0.77700
C110        C  0.67523662  0.28923901  0.08258016     0.77700
C111        C  0.74518879  0.35801418  0.08500586     0.77600
C112        C  0.67799781  0.29046860  0.98737435     0.77600
O113        O  0.86102314  0.53902845  0.25716804    -0.71500
O114        O  0.81192743  0.46684138  0.20466061    -0.71800
O115        O  0.86252936  0.46777070  0.25640758    -0.71600
O116        O  0.81008662  0.53847198  0.20513903    -0.71600
O117        O  0.85160720  0.53940293  0.16426915    -0.71600
O118        O  0.90414932  0.46948462  0.21565554    -0.71600
O119        O  0.85395534  0.46750911  0.16436817    -0.71600
O120        O  0.90185117  0.54116333  0.21561886    -0.71700
V121        V  0.83713457  0.50311109  0.23002847     1.35200
V122        V  0.87703763  0.50439634  0.19077212     1.35200
C123        C  0.89028185  0.55171580  0.24567550     0.77700
C124        C  0.82458662  0.45482200  0.17555788     0.77700
C125        C  0.89257238  0.45707469  0.24498349     0.77600
C126        C  0.82171994  0.55052163  0.17561985     0.77600
O127        O  0.00037993  0.66892093  0.31506953    -0.71500
O128        O  0.07411450  0.71836832  0.36507256    -0.71800
O129        O  0.07211721  0.66724834  0.31381591    -0.71600
O130        O  0.00253188  0.72001983  0.36594341    -0.71600
O131        O  0.00108569  0.67837795  0.40669674    -0.71600
O132        O  0.07278426  0.62666538  0.35563537    -0.71600
O133        O  0.07324623  0.67752756  0.40661997    -0.71600
O134        O  0.00066079  0.62741355  0.35590928    -0.71700
V135        V  0.03731479  0.69281490  0.34077393     1.35200
V136        V  0.03697940  0.65328126  0.38041773     1.35200
C137        C  0.98808003  0.63955251  0.32680612     0.77700
C138        C  0.08576596  0.70674085  0.39477901     0.77700
C139        C  0.08416949  0.63783860  0.32564522     0.77600
C140        C  0.98997684  0.70833928  0.39519613     0.77600
O141        O  0.16347446  0.82016001  0.57049478    -0.71500
O142        O  0.21678439  0.86953689  0.49981547    -0.71800
O143        O  0.16631744  0.81858192  0.49855045    -0.71600
O144        O  0.21406352  0.87102756  0.57150019    -0.71600
O145        O  0.25651645  0.83117582  0.57230790    -0.71600
O146        O  0.20631018  0.77642479  0.50251670    -0.71600
O147        O  0.25736639  0.82785499  0.50054624    -0.71600
O148        O  0.20527262  0.77976382  0.57421655    -0.71700
V149        V  0.19097432  0.84397489  0.53512355     1.35200
V150        V  0.23060629  0.80455789  0.53738933     1.35200
C151        C  0.17512216  0.79155597  0.58441273     0.77700
C152        C  0.24618982  0.85743898  0.48815987     0.77700
C153        C  0.17771468  0.78823268  0.48861896     0.77600
C154        C  0.24390870  0.86055312  0.58367147     0.77600
O155        O  0.36402674  0.04026036  0.75490185    -0.71500
O156        O  0.31270003  0.96833330  0.70397807    -0.71800
O157        O  0.36442191  0.96874782  0.75471354    -0.71600
O158        O  0.31194673  0.03977044  0.70428592    -0.71600
O159        O  0.35278271  0.04048186  0.66267580    -0.71600
O160        O  0.40506384  0.96918495  0.71296989    -0.71600
O161        O  0.35377224  0.96860292  0.66268344    -0.71600
O162        O  0.40423548  0.04112429  0.71273662    -0.71700
V163        V  0.33906200  0.00433332  0.72868348     1.35200
V164        V  0.37815769  0.00485262  0.68859831     1.35200
C165        C  0.39316850  0.05257134  0.74263172     0.77700
C166        C  0.32444117  0.95640701  0.67444686     0.77700
C167        C  0.39383341  0.95709893  0.74261290     0.77600
C168        C  0.32310437  0.05165010  0.67456863     0.77600
O169        O  0.75259198  0.96928610  0.36204720    -0.71500
O170        O  0.69956399  0.04000799  0.31171855    -0.71800
O171        O  0.75140203  0.04072390  0.36261115    -0.71600
O172        O  0.70080312  0.96847155  0.31154079    -0.71600
O173        O  0.66023536  0.96756836  0.35329878    -0.71600
O174        O  0.71055694  0.03995970  0.40413355    -0.71600
O175        O  0.65909638  0.03964119  0.35364886    -0.71600
O176        O  0.71166349  0.96789588  0.40350183    -0.71700
V177        V  0.72527933  0.00466738  0.33778403     1.35200
V178        V  0.68617441  0.00382280  0.37783152     1.35200
C179        C  0.74135122  0.95677850  0.39147777     0.77700
C180        C  0.67002099  0.05140838  0.32375387     0.77700
C181        C  0.73999796  0.05206406  0.39249778     0.77600
C182        C  0.67174753  0.95582701  0.32363357     0.77600
O183        O  0.50086828  0.82436629  0.25818264    -0.71500
O184        O  0.57328459  0.77474651  0.20653266    -0.71800
O185        O  0.57221979  0.82671691  0.25733945    -0.71600
O186        O  0.50176012  0.77240157  0.20731514    -0.71600
O187        O  0.49917124  0.81400357  0.16653147    -0.71600
O188        O  0.57123936  0.86669542  0.21491062    -0.71600
O189        O  0.57079308  0.81527717  0.16471431    -0.71600
O190        O  0.49953630  0.86522715  0.21653745    -0.71700
V191        V  0.53701631  0.80030109  0.23156321     1.35200
V192        V  0.53526384  0.83946122  0.19151548     1.35200
C193        C  0.48843607  0.85362907  0.24635706     0.77700
C194        C  0.58371734  0.78619018  0.17633765     0.77700
C195        C  0.58324347  0.85630979  0.24488433     0.77600
C196        C  0.48861990  0.78399542  0.17821612     0.77600
O197        O  0.20114264  0.54195958  0.81078633    -0.71500
O198        O  0.25285004  0.46984395  0.86069528    -0.71800
O199        O  0.20169073  0.47011353  0.80960107    -0.71600
O200        O  0.25222064  0.54154762  0.86176768    -0.71600
O201        O  0.21130789  0.54027310  0.90314564    -0.71600
O202        O  0.16059460  0.46926765  0.85085322    -0.71600
O203        O  0.21126440  0.46826204  0.90147792    -0.71600
O204        O  0.16050461  0.54141635  0.85250402    -0.71700
V205        V  0.22617066  0.50584673  0.83648662     1.35200
V206        V  0.18670440  0.50485333  0.87615704     1.35200
C207        C  0.17196696  0.55394558  0.82315389     0.77700
C208        C  0.24091237  0.45691052  0.88969794     0.77700
C209        C  0.17250715  0.45746940  0.82136766     0.77600
C210        C  0.24061023  0.55281792  0.89158041     0.77600
O211        O  0.40577137  0.67720152  0.06957387    -0.71500
O212        O  0.35286924  0.63131091  0.99563787    -0.71800
O213        O  0.40383480  0.68172393  0.99750007    -0.71600
O214        O  0.35466596  0.62651909  0.06744259    -0.71600
O215        O  0.31360281  0.66761339  0.07111053    -0.71600
O216        O  0.36311785  0.72321544  0.00123002    -0.71600
O217        O  0.31153941  0.67217611  0.99970804    -0.71600
O218        O  0.36494907  0.71855538  0.07289073    -0.71700
V219        V  0.37849857  0.65502553  0.03263625     1.35200
V220        V  0.33912052  0.69462726  0.03615989     1.35200
C221        C  0.39462105  0.70603787  0.08351923     0.77700
C222        C  0.32287428  0.64351909  0.98561369     0.77700
C223        C  0.39204285  0.71192189  0.98756364     0.77600
C224        C  0.32543823  0.63730150  0.08077857     0.77600
O225        O  0.16347471  0.53321946  0.21367147    -0.71500
O226        O  0.21173274  0.46046831  0.16153776    -0.71800
O227        O  0.16219888  0.46128336  0.21367235    -0.71600
O228        O  0.21313052  0.53243558  0.16159948    -0.71600
O229        O  0.25585821  0.53045251  0.20111091    -0.71600
O230        O  0.20365729  0.46129859  0.25456122    -0.71600
O231        O  0.25358132  0.45897082  0.20194446    -0.71600
O232        O  0.20573356  0.53269490  0.25369374    -0.71700
V233        V  0.18846678  0.49682982  0.18840854     1.35200
V234        V  0.22891012  0.49588406  0.22704212     1.35200
C235        C  0.17602091  0.54494938  0.24285124     0.77700
C236        C  0.24105010  0.44756241  0.17258567     0.77700
C237        C  0.17387952  0.44979911  0.24337540     0.77600
C238        C  0.24348213  0.54305181  0.17215337     0.77600
O239        O  0.30864003  0.33038162  0.99096469    -0.71500
O240        O  0.35959838  0.27725140  0.06153444    -0.71800
O241        O  0.30842898  0.32859576  0.06268092    -0.71600
O242        O  0.35982978  0.27889834  0.99010786    -0.71600
O243        O  0.40044992  0.32057435  0.99030918    -0.71600
O244        O  0.35019180  0.36904747  0.06431149    -0.71600
O245        O  0.40083271  0.31830025  0.06221641    -0.71600
O246        O  0.34977514  0.37147043  0.99231380    -0.71700
V247        V  0.33487577  0.30459455  0.02630642     1.35200
V248        V  0.37447123  0.34405046  0.02723800     1.35200
C249        C  0.32035072  0.36025147  0.97998326     0.77700
C250        C  0.38917225  0.28856938  0.07349040     0.77700
C251        C  0.32061530  0.35728257  0.07590375     0.77600
C252        C  0.38920611  0.29099567  0.97833890     0.77600
O253        O  0.56508160  0.17706919  0.15813045    -0.71500
O254        O  0.49128813  0.12825538  0.20888842    -0.71800
O255        O  0.49308744  0.17790333  0.15673784    -0.71600
O256        O  0.56322736  0.12725299  0.21015755    -0.71600
O257        O  0.56343856  0.16942719  0.25020652    -0.71600
O258        O  0.49236441  0.21966851  0.19721071    -0.71600
O259        O  0.49200501  0.16967708  0.24977036    -0.71600
O260        O  0.56392275  0.21948924  0.19789103    -0.71700
V261        V  0.52814952  0.15343043  0.18426044     1.35200
V262        V  0.52789996  0.19376862  0.22295814     1.35200
C263        C  0.57676794  0.20689516  0.16916104     0.77700
C264        C  0.47973852  0.14027165  0.23842141     0.77700
C265        C  0.48106140  0.20763200  0.16762298     0.77600
C266        C  0.57517697  0.13953747  0.23935659     0.77600
O267        O  0.99921552  0.31582036  0.66626353    -0.71500
O268        O  0.07274706  0.36719071  0.71368644    -0.71800
O269        O  0.07092281  0.31543917  0.66382479    -0.71600
O270        O  0.00113965  0.36739216  0.71610851    -0.71600
O271        O  0.00246205  0.32725917  0.75838952    -0.71600
O272        O  0.07187607  0.27451460  0.70538707    -0.71600
O273        O  0.07388746  0.32703757  0.75593500    -0.71600
O274        O  0.00044780  0.27490949  0.70779530    -0.71700
V275        V  0.03604667  0.34060825  0.69081888     1.35200
V276        V  0.03718415  0.30167603  0.73110424     1.35200
C277        C  0.98773013  0.28636401  0.67844858     0.77700
C278        C  0.08512262  0.35653679  0.74339256     0.77700
C279        C  0.08268606  0.28578326  0.67524677     0.77600
C280        C  0.99036275  0.35661614  0.74639015     0.77600
O281        O  0.90590509  0.17929671  0.56980617    -0.71500
O282        O  0.85280169  0.13057558  0.49791767    -0.71800
O283        O  0.90313842  0.18171419  0.49766510    -0.71600
O284        O  0.85552188  0.12826688  0.56991399    -0.71600
O285        O  0.81431741  0.16926579  0.57287714    -0.71600
O286        O  0.86176842  0.22265432  0.50044543    -0.71600
O287        O  0.81102587  0.17097852  0.50112113    -0.71600
O288        O  0.86487597  0.22053522  0.57210517    -0.71700
V289        V  0.87854415  0.15577971  0.53385296     1.35200
V290        V  0.83878718  0.19506068  0.53654737     1.35200
C291        C  0.89457190  0.20835781  0.58308989     0.77700
C292        C  0.82262356  0.14210232  0.48759380     0.77700
C293        C  0.89073416  0.21140407  0.48696532     0.77600
C294        C  0.82668746  0.13959633  0.58364844     0.77600
O295        O  0.19780303  0.21609572  0.56424492    -0.71500
O296        O  0.25077636  0.16454743  0.49431320    -0.71800
O297        O  0.19900501  0.21494457  0.49266704    -0.71600
O298        O  0.24953901  0.16602611  0.56584228    -0.66800
O299        O  0.20981866  0.12356812  0.56514197    -0.71600
O300        O  0.15766849  0.17408881  0.49376955    -0.71600
O301        O  0.20924343  0.12383878  0.49302798    -0.71600
O302        O  0.15821529  0.17355825  0.56572758    -0.71700
V303        V  0.22348051  0.18958840  0.52920899     1.35200
V304        V  0.18452529  0.14953345  0.52937003     1.35200
C305        C  0.16906896  0.20352861  0.57711091     0.77700
C306        C  0.23910479  0.13530790  0.48189004     0.77700
C307        C  0.16924350  0.20348174  0.48145254     0.77600
C308        C  0.23851306  0.13632499  0.57778731     0.77600
O309        O  0.35728682  0.96012338  0.40448478    -0.71500
O310        O  0.40458045  0.03411199  0.35291275    -0.71800
O311        O  0.35399170  0.03202200  0.40392453    -0.71600
O312        O  0.40785700  0.96220799  0.35359291    -0.71600
O313        O  0.36642729  0.95967325  0.31283592    -0.71600
O314        O  0.31307672  0.03069028  0.36257791    -0.71600
O315        O  0.36406022  0.03141880  0.31128656    -0.71600
O316        O  0.31538856  0.95929954  0.36399602    -0.71700
V317        V  0.38014412  0.99709551  0.37790371     1.35200
V318        V  0.34057359  0.99527317  0.33842349     1.35200
C319        C  0.32780818  0.94785335  0.39337568     0.77700
C320        C  0.39262485  0.04516623  0.32313792     0.77700
C321        C  0.32426690  0.04311757  0.39203571     0.77600
C322        C  0.39636152  0.94900285  0.32463730     0.77600
O323        O  0.99181213  0.28322821  0.36396479    -0.71500
O324        O  0.06682964  0.33064167  0.31423618    -0.71800
O325        O  0.06296287  0.27828183  0.36409512    -0.71600
O326        O  0.99561475  0.33533072  0.31405964    -0.71600
O327        O  0.99655033  0.37461613  0.35699376    -0.71600
O328        O  0.06696435  0.31927186  0.40524603    -0.71600
O329        O  0.06832185  0.37141029  0.35567342    -0.71600
O330        O  0.99513236  0.32260809  0.40666509    -0.71700
V331        V  0.02935301  0.30766612  0.33990466     1.35200
V332        V  0.03170670  0.34619678  0.38035818     1.35200
C333        C  0.98117358  0.29445945  0.39412517     0.77700
C334        C  0.07979399  0.35959800  0.32604423     0.77700
C335        C  0.07633430  0.28901820  0.39322592     0.77600
C336        C  0.98465610  0.36465769  0.32690343     0.77600
C337        C  0.11905124  0.20872833  0.43760472    -0.21100
C338        C  0.14773189  0.22472478  0.45592130    -0.09100
C339        C  0.15384195  0.26174803  0.45168061     0.29700
C340        C  0.13067709  0.28245042  0.43083199    -0.21100
C341        C  0.10172349  0.26653305  0.41316006    -0.09100
C342        C  0.09636813  0.22937633  0.41608362     0.29700
F343        F  0.06811367  0.21338981  0.39974231    -0.19700
H344        H  0.11377372  0.18032185  0.44047261     0.18100
H345        H  0.13519783  0.31104754  0.42867599     0.18100
F346        F  0.18120627  0.27833511  0.46888122    -0.19600
C347        C  0.29811660  0.11437312  0.45929150    -0.21100
C348        C  0.26065347  0.11424460  0.45633308    -0.09100
C349        C  0.24436291  0.09228468  0.43046703     0.29700
C350        C  0.26534767  0.07021669  0.40857766    -0.21100
C351        C  0.30275230  0.06913693  0.41268629    -0.09100
C352        C  0.31902451  0.09177599  0.43800613     0.29700
F353        F  0.35511528  0.09189330  0.44244968    -0.19700
H354        H  0.31118189  0.13102457  0.47911831     0.18100
H355        H  0.25221739  0.05303972  0.38924189     0.18100
F356        F  0.20822635  0.09209774  0.42641397    -0.19600
C357        C  0.95230855  0.23681253  0.41071015    -0.21100
C358        C  0.95451205  0.27411531  0.41501952    -0.09100
C359        C  0.93311807  0.29092316  0.44115176     0.29700
C360        C  0.91091695  0.27042439  0.46334335    -0.21100
C361        C  0.91040613  0.23293338  0.46037426    -0.09100
C362        C  0.93078320  0.21628436  0.43343699     0.29700
F363        F  0.93020972  0.18014374  0.42936024    -0.19700
H364        H  0.96851866  0.22330663  0.39074792     0.18100
H365        H  0.89533851  0.28372539  0.48395215     0.18100
F366        F  0.93405845  0.32701262  0.44562036    -0.19600
C367        C  0.93570685  0.28399692  0.63679406    -0.21100
C368        C  0.96105692  0.26569889  0.65777957    -0.09100
C369        C  0.96279357  0.22808552  0.65582811     0.29700
C370        C  0.94069814  0.20947352  0.63188104    -0.21100
C371        C  0.91593491  0.22792067  0.61019409    -0.09100
C372        C  0.91303877  0.26537105  0.61356473     0.29700
F373        F  0.88962092  0.28427355  0.59307145    -0.19700
H374        H  0.93392149  0.31295320  0.63788497     0.18100
H375        H  0.94329087  0.18061662  0.62992873     0.18100
F376        F  0.98723041  0.20951781  0.67543008    -0.19600
C377        C  0.10220436  0.22713408  0.65020987    -0.21100
C378        C  0.10713164  0.26430211  0.65292492    -0.09100
C379        C  0.13343529  0.28100362  0.63179551     0.29700
C380        C  0.15414725  0.26083656  0.60800343    -0.21100
C381        C  0.14842747  0.22382254  0.60420826    -0.09100
C382        C  0.12231785  0.20702783  0.62575241     0.29700
F383        F  0.11597751  0.17131687  0.62304286    -0.19700
H384        H  0.08173324  0.21388297  0.66602161     0.18100
H385        H  0.17403003  0.27443519  0.59177196     0.18100
F386        F  0.13903480  0.31686473  0.63410314    -0.19600
C387        C  0.45907559  0.11756725  0.29750529    -0.21100
C388        C  0.45426295  0.11941012  0.26023346    -0.09100
C389        C  0.42702128  0.09906572  0.24421813     0.29700
C390        C  0.40593377  0.07613241  0.26513190    -0.21100
C391        C  0.41217584  0.07260645  0.30217493    -0.09100
C392        C  0.43852455  0.09416429  0.31833047     0.29700
F393        F  0.44494590  0.09222174  0.35411700    -0.19700
H394        H  0.47995035  0.13307957  0.31032777     0.18100
H395        H  0.38560968  0.06011154  0.25207499     0.18100
F396        F  0.42098807  0.10117952  0.20837591    -0.19600
C397        C  0.43120259  0.28513337  0.12503151    -0.21100
C398        C  0.41022034  0.26746723  0.09939067    -0.09100
C399        C  0.41138223  0.22987282  0.09739540     0.29700
C400        C  0.43402723  0.21046977  0.12014690    -0.21100
C401        C  0.45531344  0.22816474  0.14562913    -0.09100
C402        C  0.45329295  0.26572873  0.14824492     0.29700
F403        F  0.47386526  0.28388904  0.17205768    -0.19700
H404        H  0.43072491  0.31410585  0.12686714     0.18100
H405        H  0.43524626  0.18157694  0.11754709     0.18100
F406        F  0.39209341  0.21204923  0.07226855    -0.19600
C407        C  0.29845429  0.41949284  0.15294142    -0.21100
C408        C  0.26092377  0.42111894  0.15077260    -0.09100
C409        C  0.24313007  0.39931995  0.12570611     0.29700
C410        C  0.26272147  0.37732269  0.10251490    -0.21100
C411        C  0.30031086  0.37728109  0.10334914    -0.09100
C412        C  0.31806345  0.39809490  0.12921297     0.29700
F413        F  0.35436602  0.39799122  0.13136305    -0.19700
H414        H  0.31275460  0.43598451  0.17203121     0.18100
H415        H  0.24851604  0.36142218  0.08285361     0.18100
F416        F  0.20684971  0.39961766  0.12324663    -0.19600
C417        C  0.12742326  0.40633266  0.32224432    -0.21100
C418        C  0.10662708  0.38001927  0.30522711    -0.09100
C419        C  0.10991757  0.37541971  0.26787978     0.29700
C420        C  0.13237986  0.39783891  0.24794356    -0.21100
C421        C  0.15259049  0.42450040  0.26493041    -0.09100
C422        C  0.15047526  0.42819826  0.30237797     0.29700
F423        F  0.16910316  0.45427845  0.31950526    -0.19700
H424        H  0.12534739  0.41044659  0.35093330     0.18100
H425        H  0.13372579  0.39462591  0.21909888     0.18100
F426        F  0.09023551  0.35043601  0.25033103    -0.19600
C427        C  0.30166137  0.56393543  0.14727674    -0.21100
C428        C  0.26450914  0.56861534  0.15058033    -0.09100
C429        C  0.24775431  0.59679537  0.13198482     0.29700
C430        C  0.26796670  0.61978983  0.11030114    -0.21100
C431        C  0.30503177  0.61451324  0.10607583    -0.09100
C432        C  0.32175653  0.58630674  0.12487435     0.29700
F433        F  0.35746396  0.58019663  0.12155664    -0.19700
H434        H  0.31498893  0.54216813  0.16121451     0.18100
H435        H  0.25441113  0.64115946  0.09600489     0.18100
F436        F  0.21191526  0.60224964  0.13499798    -0.19600
C437        C  0.13025490  0.40562701  0.81981058    -0.21100
C438        C  0.15255335  0.42970324  0.80128945    -0.09100
C439        C  0.15449880  0.42761364  0.76364931     0.29700
C440        C  0.13333259  0.40292012  0.74501888    -0.21100
C441        C  0.11056164  0.37927557  0.76352629    -0.09100
C442        C  0.10974928  0.38036821  0.80123406     0.29700
F443        F  0.08764146  0.35844148  0.82008440    -0.19700
H444        H  0.12843034  0.40659404  0.84879255     0.18100
H445        H  0.13427948  0.40268145  0.71597310     0.18100
F446        F  0.17548935  0.45054636  0.74471691    -0.19600
C447        C  0.24432107  0.59762918  0.94127091    -0.21100
C448        C  0.26114401  0.57913499  0.91306342    -0.09100
C449        C  0.29807369  0.58447314  0.90723184     0.29700
C450        C  0.31786750  0.60619681  0.93044615    -0.21100
C451        C  0.30115839  0.62382427  0.95914260    -0.09100
C452        C  0.26398373  0.62007346  0.96389568     0.29700
F453        F  0.24706214  0.63635253  0.99170598    -0.19700
H454        H  0.21588039  0.59416764  0.94629419     0.18100
H455        H  0.34653104  0.60889830  0.92628499     0.18100
F456        F  0.31543691  0.56749272  0.88014241    -0.19600
C457        C  0.24327462  0.40447562  0.93103522    -0.21100
C458        C  0.26137409  0.42991643  0.90999767    -0.09100
C459        C  0.29900263  0.43068333  0.91036468     0.29700
C460        C  0.31803292  0.40727949  0.93258808    -0.21100
C461        C  0.29995409  0.38227558  0.95420171    -0.09100
C462        C  0.26234205  0.38051508  0.95268077     0.29700
F463        F  0.24389914  0.35696679  0.97343829    -0.19700
H464        H  0.21425903  0.40346205  0.93104579     0.18100
H465        H  0.34698863  0.40909273  0.93333360     0.18100
F466        F  0.31732021  0.45531835  0.89078528    -0.19600
C467        C  0.43544631  0.78116807  0.13817302    -0.21100
C468        C  0.46219074  0.76308498  0.15750361    -0.09100
C469        C  0.46508040  0.72563837  0.15424194     0.29700
C470        C  0.44257681  0.70702319  0.13065198    -0.21100
C471        C  0.41630998  0.72529082  0.11063613    -0.09100
C472        C  0.41241700  0.76253262  0.11533308     0.29700
F473        F  0.38755472  0.78133869  0.09652425    -0.19700
H474        H  0.43274162  0.80999077  0.14034000     0.18100
H475        H  0.44605334  0.67836137  0.12762008     0.18100
F476        F  0.49093206  0.70734496  0.17221055    -0.19600
C477        C  0.43511423  0.89321959  0.24931818    -0.21100
C478        C  0.46259245  0.87476093  0.26713777    -0.09100
C479        C  0.46711946  0.87943696  0.30420463     0.29700
C480        C  0.44505774  0.90323907  0.32286872    -0.21100
C481        C  0.41782567  0.92222512  0.30498235    -0.09100
C482        C  0.41257927  0.91647005  0.26806578     0.29700
F483        F  0.38678412  0.93444284  0.24971367    -0.19700
H484        H  0.43145228  0.88999872  0.22067817     0.18100
H485        H  0.44962467  0.90721275  0.35127691     0.18100
F486        F  0.49416949  0.86268597  0.32192067    -0.19600
C487        C  0.74391300  0.10232240  0.43671563    -0.21100
C488        C  0.76118755  0.07759859  0.41417386    -0.09100
C489        C  0.79882291  0.07569313  0.41459309     0.29700
C490        C  0.81857014  0.09724456  0.43802473    -0.21100
C491        C  0.80134112  0.12163437  0.46100136    -0.09100
C492        C  0.76372713  0.12450907  0.45958753     0.29700
F493        F  0.74594064  0.14754056  0.48142371    -0.19700
H494        H  0.71494013  0.10418879  0.43688693     0.18100
H495        H  0.84746335  0.09448018  0.43853915     0.18100
F496        F  0.81646545  0.05159721  0.39380472    -0.19600
C497        C  0.63226835  0.90177676  0.24706355    -0.21100
C498        C  0.60831426  0.87916405  0.26530843    -0.09100
C499        C  0.60654235  0.88085911  0.30296034     0.29700
C500        C  0.62756827  0.90553596  0.32174366    -0.21100
C501        C  0.65127721  0.92845148  0.30349260    -0.09100
C502        C  0.65389081  0.92590065  0.26590295     0.29700
F503        F  0.67611804  0.94779943  0.24716679    -0.19700
H504        H  0.63394622  0.90104435  0.21805809     0.18100
H505        H  0.62504547  0.90696251  0.35066043     0.18100
F506        F  0.58312967  0.86004058  0.32148865    -0.19600
C507        C  0.60341089  0.12366742  0.29799037    -0.21100
C508        C  0.60150287  0.11896716  0.26064306    -0.09100
C509        C  0.62381513  0.09336328  0.24423628     0.29700
C510        C  0.64711956  0.07260729  0.26495205    -0.21100
C511        C  0.64797620  0.07630838  0.30238508    -0.09100
C512        C  0.62611899  0.10221732  0.31881735     0.29700
F513        F  0.62674256  0.10680275  0.35491958    -0.19700
H514        H  0.58645546  0.14318674  0.31122030     0.18100
H515        H  0.66361270  0.05262935  0.25180654     0.18100
F516        F  0.62302694  0.08821896  0.20820839    -0.19600
C517        C  0.26408671  0.07017948  0.65050494    -0.21100
C518        C  0.30106260  0.07622771  0.65314521    -0.09100
C519        C  0.31686807  0.10360453  0.63273392     0.29700
C520        C  0.29600139  0.12395761  0.60922731    -0.21100
C521        C  0.25928781  0.11673542  0.60513625    -0.09100
C522        C  0.24332859  0.08995291  0.62639858     0.29700
F523        F  0.20784404  0.08255197  0.62363405    -0.19700
H524        H  0.25155105  0.04899344  0.66595552     0.18100
H525        H  0.30886111  0.14456395  0.59328172     0.18100
F526        F  0.35247812  0.11045542  0.63533783    -0.19600
C527        C  0.30183775  0.88240788  0.60866588    -0.21100
C528        C  0.26422590  0.88287660  0.60933347    -0.09100
C529        C  0.24662015  0.90635947  0.63304805     0.29700
C530        C  0.26641576  0.92918451  0.65524328    -0.21100
C531        C  0.30400620  0.92970557  0.65350900    -0.09100
C532        C  0.32159227  0.90588209  0.63013531     0.29700
F533        F  0.35789015  0.90536057  0.62789881    -0.19700
H534        H  0.31599154  0.86472012  0.59049453     0.18100
H535        H  0.25227817  0.94739647  0.67290692     0.18100
F536        F  0.21030391  0.90735864  0.63469986    -0.19600
C537        C  0.32123626  0.89028390  0.42718886    -0.21100
C538        C  0.30685788  0.92300502  0.41543977    -0.09100
C539        C  0.27240949  0.93313981  0.42631908     0.29700
C540        C  0.25276328  0.91117387  0.44923075    -0.21100
C541        C  0.26694172  0.87846713  0.46159777    -0.09100
C542        C  0.30126226  0.86780882  0.44979946     0.29700
F543        F  0.31577689  0.83617798  0.46051189    -0.19700
H544        H  0.34787130  0.88222009  0.41886588     0.18100
H545        H  0.22658624  0.92026937  0.45786182     0.18100
F546        F  0.25847135  0.96524450  0.41618628    -0.19600
C547        C  0.13331853  0.70978638  0.44198116    -0.21100
C548        C  0.11232517  0.72726927  0.41596626    -0.09100
C549        C  0.11517933  0.76473840  0.41236162     0.29700
C550        C  0.13713539  0.78429267  0.43558405    -0.21100
C551        C  0.15737137  0.76689181  0.46216949    -0.09100
C552        C  0.15597674  0.72928522  0.46460418     0.29700
F553        F  0.17493562  0.71152094  0.49013389    -0.19700
H554        H  0.13171874  0.68097859  0.44523725     0.18100
H555        H  0.13794502  0.81321150  0.43311284     0.18100
F556        F  0.09540201  0.78275687  0.38765723    -0.19600
C557        C  0.13286621  0.59587463  0.24692168    -0.21100
C558        C  0.15553876  0.57126883  0.26420412    -0.09100
C559        C  0.15614240  0.57020618  0.30192097     0.29700
C560        C  0.13328888  0.59235643  0.32180186    -0.21100
C561        C  0.11010584  0.61651713  0.30450484    -0.09100
C562        C  0.11067597  0.61864558  0.26678922     0.29700
F563        F  0.08853566  0.64144036  0.24899131    -0.19700
H564        H  0.13197004  0.59712175  0.21789189     0.18100
H565        H  0.13339717  0.59030445  0.35078925     0.18100
F566        F  0.17734285  0.54641008  0.31954763    -0.19600
C567        C  0.92820264  0.60636212  0.25137974    -0.21100
C568        C  0.91167661  0.57669027  0.26749315    -0.09100
C569        C  0.91870714  0.56903987  0.30372945     0.29700
C570        C  0.94300224  0.59002493  0.32303420    -0.21100
C571        C  0.96028183  0.61936888  0.30677784    -0.09100
C572        C  0.95186568  0.62789575  0.27088856     0.29700
F573        F  0.96744685  0.65618648  0.25412157    -0.19700
H574        H  0.92312444  0.61256882  0.22344593     0.18100
H575        H  0.94882069  0.58283064  0.35059056     0.18100
F576        F  0.90385258  0.53993570  0.31980426    -0.19600
C577        C  0.91238401  0.43182690  0.30348189    -0.21100
C578        C  0.91430604  0.43169251  0.26586831    -0.09100
C579        C  0.93862823  0.40866511  0.24865354     0.29700
C580        C  0.96071079  0.38627185  0.26884885    -0.21100
C581        C  0.95955421  0.38709894  0.30644852    -0.09100
C582        C  0.93517202  0.41003386  0.32374023     0.29700
F583        F  0.93322936  0.41123799  0.36008031    -0.19700
H584        H  0.89399604  0.44964421  0.31721551     0.18100
H585        H  0.97948149  0.36891736  0.25504272     0.18100
F586        F  0.94104927  0.40775080  0.21232959    -0.19600
C587        C  0.80327375  0.38092203  0.10886744    -0.21100
C588        C  0.76573717  0.37958611  0.11105438    -0.09100
C589        C  0.74804138  0.40148769  0.13610628     0.29700
C590        C  0.76754204  0.42482719  0.15793758    -0.21100
C591        C  0.80493828  0.42746647  0.15461282    -0.09100
C592        C  0.82274904  0.40493974  0.13008568     0.29700
F593        F  0.85890057  0.40631203  0.12635114    -0.19700
H594        H  0.81743117  0.36445865  0.08957743     0.18100
H595        H  0.75318926  0.44182646  0.17658300     0.18100
F596        F  0.71182353  0.40057668  0.13926182    -0.19600
C597        C  0.60572905  0.26469050  0.15237272    -0.21100
C598        C  0.60395106  0.22726700  0.14863912    -0.09100
C599        C  0.62746455  0.21019131  0.12454541     0.29700
C600        C  0.65182758  0.23041529  0.10432963    -0.21100
C601        C  0.65254865  0.26795659  0.10712689    -0.09100
C602        C  0.62943710  0.28492396  0.13156706     0.29700
F603        F  0.62969085  0.32110554  0.13528941    -0.19700
H604        H  0.58792612  0.27849946  0.17070920     0.18100
H605        H  0.66923877  0.21681954  0.08545354     0.18100
F606        F  0.62688412  0.17405333  0.12043897    -0.19600
C607        C  0.45927850  0.12590382  0.76603586    -0.21100
C608        C  0.46287579  0.12103054  0.80325028    -0.09100
C609        C  0.44119151  0.09536114  0.82054363     0.29700
C610        C  0.41719408  0.07451373  0.80079383    -0.21100
C611        C  0.41489597  0.07821651  0.76342735    -0.09100
C612        C  0.43582433  0.10443377  0.74618336     0.29700
F613        F  0.43373554  0.10915395  0.71013144    -0.19700
H614        H  0.47550777  0.14554347  0.75209473     0.18100
H615        H  0.40146864  0.05434464  0.81457034     0.18100
F616        F  0.44337999  0.09007148  0.85651244    -0.19600
C617        C  0.61487076  0.26767777  0.91124233    -0.21100
C618        C  0.61073671  0.23053180  0.91603747    -0.09100
C619        C  0.63097913  0.21312662  0.94281167     0.29700
C620        C  0.65414481  0.23267773  0.96471600    -0.21100
C621        C  0.65698039  0.26995910  0.96098670    -0.09100
C622        C  0.63745985  0.28735213  0.93378024     0.29700
F623        F  0.64013568  0.32334311  0.92909515    -0.19700
H624        H  0.59967726  0.28171180  0.89081652     0.18100
H625        H  0.66879164  0.21882247  0.98566396     0.18100
F626        F  0.62813022  0.17724793  0.94818836    -0.19600
C627        C  0.41466270  0.23296792  0.95833082    -0.21100
C628        C  0.41108427  0.27001958  0.95307103    -0.09100
C629        C  0.43103310  0.28683401  0.92588246     0.29700
C630        C  0.45492641  0.26687810  0.90494641    -0.21100
C631        C  0.45992269  0.23006317  0.91140036    -0.09100
C632        C  0.43911977  0.21315064  0.93804453     0.29700
F633        F  0.44276296  0.17759724  0.94498172    -0.19700
H634        H  0.39967860  0.21960852  0.97936414     0.18100
H635        H  0.47047024  0.28051497  0.88453575     0.18100
F636        F  0.42760381  0.32255394  0.91977303    -0.19600
C637        C  0.93862560  0.71271195  0.43823167    -0.21100
C638        C  0.96358065  0.72966773  0.41568002    -0.09100
C639        C  0.96376942  0.76732822  0.41363063     0.29700
C640        C  0.94021707  0.78752376  0.43460368    -0.21100
C641        C  0.91554128  0.77068076  0.45750135    -0.09100
C642        C  0.91448712  0.73295363  0.45869192     0.29700
F643        F  0.89137649  0.71563807  0.48086353    -0.19700
H644        H  0.93794347  0.68374128  0.44015285     0.18100
H645        H  0.94165427  0.81648890  0.43333223     0.18100
F646        F  0.98784681  0.78475692  0.39261319    -0.19600
C647        C  0.74588774  0.90424606  0.43261283    -0.21100
C648        C  0.76285621  0.93063455  0.41185858    -0.09100
C649        C  0.80044274  0.93296925  0.41221643     0.29700
C650        C  0.82050757  0.91017046  0.43418459    -0.21100
C651        C  0.80355303  0.88417387  0.45552460    -0.09100
C652        C  0.76600712  0.88083906  0.45393238     0.29700
F653        F  0.74855850  0.85617811  0.47425250    -0.19700
H654        H  0.71694567  0.90197671  0.43255867     0.18100
H655        H  0.84935693  0.91324863  0.43495595     0.18100
F656        F  0.81767230  0.95853043  0.39283355    -0.19600
C657        C  0.93112655  0.71750462  0.63185220    -0.21100
C658        C  0.95807655  0.73478299  0.65140502    -0.09100
C659        C  0.96282603  0.77192561  0.64754864     0.29700
C660        C  0.94137809  0.79129550  0.62376011    -0.21100
C661        C  0.91450416  0.77406534  0.60393196    -0.09100
C662        C  0.90913569  0.73699190  0.60859194     0.29700
F663        F  0.88370366  0.71928088  0.58962914    -0.19700
H664        H  0.92730430  0.68883672  0.63441934     0.18100
H665        H  0.94608476  0.81976136  0.62053326     0.18100
F666        F  0.98946485  0.78914259  0.66528665    -0.19600
C667        C  0.15528801  0.73441374  0.61294046    -0.21100
C668        C  0.15314362  0.77192312  0.61084442    -0.09100
C669        C  0.12787880  0.79010074  0.63219453     0.29700
C670        C  0.10461496  0.77091332  0.65443709    -0.21100
C671        C  0.10553849  0.73334029  0.65511922    -0.09100
C672        C  0.13142139  0.71517615  0.63455283     0.29700
F673        F  0.13349272  0.67884999  0.63517154    -0.19700
H674        H  0.17447683  0.71987005  0.59668749     0.18100
H675        H  0.08486737  0.78539823  0.67006377     0.18100
F676        F  0.12535449  0.82639384  0.63125638    -0.19600
C677        C  0.13015314  0.60623423  0.74712881    -0.21100
C678        C  0.10423667  0.62638831  0.76544231    -0.09100
C679        C  0.10302393  0.62523075  0.80307988     0.29700
C680        C  0.12598014  0.60233983  0.82184690    -0.21100
C681        C  0.15099515  0.58103045  0.80343714    -0.09100
C682        C  0.15374455  0.58407900  0.76592380     0.29700
F683        F  0.17780746  0.56422332  0.74719123    -0.19700
H684        H  0.13169062  0.60716648  0.71811346     0.18100
H685        H  0.12365805  0.60067294  0.85077435     0.18100
F686        F  0.07826864  0.64449336  0.82154803    -0.19600
C687        C  0.80450872  0.92756927  0.65353498    -0.21100
C688        C  0.76687336  0.92719936  0.65316928    -0.09100
C689        C  0.74908369  0.90473172  0.62876516     0.29700
C690        C  0.76862134  0.88344931  0.60493114    -0.21100
C691        C  0.80618672  0.88481254  0.60430727    -0.09100
C692        C  0.82408146  0.90691686  0.62903856     0.29700
F693        F  0.86041007  0.90855775  0.62957439    -0.19700
H694        H  0.81877446  0.94489250  0.67191762     0.18100
H695        H  0.75427658  0.86668678  0.58612570     0.18100
F696        F  0.71276064  0.90347015  0.62778741    -0.19600
C697        C  0.64402796  0.10364563  0.75126319    -0.21100
C698        C  0.66029711  0.07450581  0.76871558    -0.09100
C699        C  0.65468196  0.06959898  0.80561431     0.29700
C700        C  0.63154383  0.09239660  0.82427657    -0.21100
C701        C  0.61411375  0.12087386  0.80665867    -0.09100
C702        C  0.62155585  0.12705094  0.77010529     0.29700
F703        F  0.60594243  0.15461798  0.75212763    -0.19700
H704        H  0.64830566  0.10792586  0.72281667     0.18100
H705        H  0.62655343  0.08715778  0.85242552     0.18100
F706        F  0.66965989  0.04137203  0.82310658    -0.19600
C707        C  0.75256787  0.10226367  0.64199558    -0.21100
C708        C  0.76985557  0.07315245  0.65831607    -0.09100
C709        C  0.80644054  0.06726768  0.65184137     0.29700
C710        C  0.82503021  0.08949473  0.62807646    -0.21100
C711        C  0.80755670  0.11820978  0.61094276    -0.09100
C712        C  0.77126906  0.12496303  0.61885202     0.29700
F713        F  0.75335474  0.15248314  0.60309537    -0.19700
H714        H  0.72432214  0.10706330  0.64676108     0.18100
H715        H  0.85296344  0.08378851  0.62253482     0.18100
F716        F  0.82358570  0.03874825  0.66667417    -0.19600
C717        C  0.63059908  0.90425245  0.74723203    -0.21100
C718        C  0.65534142  0.92577717  0.76562834    -0.09100
C719        C  0.65680121  0.92382682  0.80329930     0.29700
C720        C  0.63284771  0.90189386  0.82208347    -0.21100
C721        C  0.60767071  0.88088624  0.80369727    -0.09100
C722        C  0.60723195  0.88168312  0.76598436     0.29700
F723        F  0.58294928  0.86217004  0.74729326    -0.19700
H724        H  0.62898267  0.90530746  0.71823448     0.18100
H725        H  0.63366499  0.90166272  0.85113250     0.18100
F726        F  0.68005255  0.94446534  0.82209805    -0.19600
C727        C  0.41309825  0.93074971  0.80084120    -0.21100
C728        C  0.41511670  0.93095529  0.76322628    -0.09100
C729        C  0.43877017  0.90727134  0.74591867     0.29700
C730        C  0.46043366  0.88427793  0.76606371    -0.21100
C731        C  0.45948573  0.88514068  0.80369589    -0.09100
C732        C  0.43538135  0.90835688  0.82100425     0.29700
F733        F  0.43337272  0.90942606  0.85734528    -0.19700
H734        H  0.39507634  0.94883011  0.81470559     0.18100
H735        H  0.47888732  0.86662469  0.75222151     0.18100
F736        F  0.44101413  0.90637708  0.70958578    -0.19600
C737        C  0.43640450  0.79046063  0.94079398    -0.21100
C738        C  0.45673116  0.77302138  0.91424880    -0.09100
C739        C  0.45353968  0.73562585  0.91052726     0.29700
C740        C  0.43181771  0.71607897  0.93404216    -0.21100
C741        C  0.41220017  0.73342171  0.96107570    -0.09100
C742        C  0.41400548  0.77095267  0.96377470     0.29700
F743        F  0.39574282  0.78856695  0.98986440    -0.19700
H744        H  0.43835773  0.81921673  0.94419495     0.18100
H745        H  0.43068369  0.68719315  0.93142748     0.18100
F746        F  0.47277518  0.71764982  0.88540868    -0.19600
C747        C  0.62813555  0.78546834  0.93610317    -0.21100
C748        C  0.60406759  0.76861542  0.91272705    -0.09100
C749        C  0.60331205  0.73093948  0.91116176     0.29700
C750        C  0.62540080  0.71063948  0.93368494    -0.21100
C751        C  0.64912326  0.72754332  0.95741124    -0.09100
C752        C  0.65076078  0.76520926  0.95800765     0.29700
F753        F  0.67289729  0.78251798  0.98104997    -0.19700
H754        H  0.62912634  0.81443930  0.93773097     0.18100
H755        H  0.62371100  0.68166759  0.93285675     0.18100
F756        F  0.58003487  0.71372080  0.88920525    -0.19600
C757        C  0.76287979  0.57351107  0.15410429    -0.21100
C758        C  0.80042006  0.57569040  0.15388679    -0.09100
C759        C  0.81734486  0.59992443  0.13048254     0.29700
C760        C  0.79702156  0.62084026  0.10702654    -0.21100
C761        C  0.75960939  0.61740199  0.10593884    -0.09100
C762        C  0.74255503  0.59389858  0.13005024     0.29700
F763        F  0.70635274  0.59047735  0.13025910    -0.19700
H764        H  0.74935333  0.55490724  0.17186873     0.18100
H765        H  0.81069598  0.63885075  0.08877863     0.18100
F766        F  0.85356469  0.60313354  0.13000140    -0.19600
C767        C  0.63361994  0.70891269  0.13360802    -0.21100
C768        C  0.65104362  0.72645513  0.10524961    -0.09100
C769        C  0.64820547  0.76381895  0.10192973     0.29700
C770        C  0.62720013  0.78317215  0.12599861    -0.21100
C771        C  0.60913212  0.76571062  0.15407697    -0.09100
C772        C  0.61312926  0.72838964  0.15821264     0.29700
F773        F  0.59597753  0.71050032  0.18490060    -0.19700
H774        H  0.63573308  0.68007691  0.13654804     0.18100
H775        H  0.62445739  0.81184468  0.12218775     0.18100
F776        F  0.66413808  0.78137056  0.07426062    -0.19600
C777        C  0.91053453  0.57696580  0.76782191    -0.21100
C778        C  0.91340004  0.57590230  0.80537133    -0.09100
C779        C  0.93622524  0.60045309  0.82259251     0.29700
C780        C  0.95678269  0.62451036  0.80240964    -0.21100
C781        C  0.95551795  0.62402557  0.76478080    -0.09100
C782        C  0.93164755  0.60050046  0.74762678     0.29700
F783        F  0.92908642  0.59989918  0.71131428    -0.19700
H784        H  0.89300120  0.55850490  0.75395017     0.18100
H785        H  0.97496918  0.64240774  0.81618758     0.18100
F786        F  0.93904466  0.60092499  0.85888768    -0.19600
C787        C  0.81866210  0.59692854  0.93405667    -0.21100
C788        C  0.80226359  0.57007280  0.91365519    -0.09100
C789        C  0.76475181  0.56665846  0.91439536     0.29700
C790        C  0.74424223  0.58899598  0.93642053    -0.21100
C791        C  0.76072763  0.61549575  0.95738371    -0.09100
C792        C  0.79815455  0.61975792  0.95542786     0.29700
F793        F  0.81520797  0.64483009  0.97543896    -0.19700
H794        H  0.84752263  0.59999175  0.93373474     0.18100
H795        H  0.71547939  0.58521220  0.93749999     0.18100
F796        F  0.74811081  0.54055924  0.89535736    -0.19600
C797        C  0.77196746  0.42326516  0.91528332    -0.21100
C798        C  0.80950934  0.42347862  0.91744863    -0.09100
C799        C  0.82661740  0.40054150  0.94209238     0.29700
C800        C  0.80629913  0.37824600  0.96446546    -0.21100
C801        C  0.76869758  0.37923478  0.96331408    -0.09100
C802        C  0.75167489  0.40174226  0.93827359     0.29700
F803        F  0.71539597  0.40307548  0.93610976    -0.19700
H804        H  0.75821283  0.44085708  0.89666921     0.18100
H805        H  0.81993930  0.36116925  0.98364555     0.18100
F806        F  0.86288262  0.39981022  0.94469604    -0.19600
C807        C  0.91870125  0.42416677  0.77010818    -0.21100
C808        C  0.92168478  0.42568704  0.80759838    -0.09100
C809        C  0.94618771  0.40287080  0.82506182     0.29700
C810        C  0.96744369  0.37922517  0.80509923    -0.21100
C811        C  0.96522401  0.37865911  0.76749097    -0.09100
C812        C  0.94050173  0.40123915  0.75016032     0.29700
F813        F  0.93741204  0.40120008  0.71388298    -0.19700
H814        H  0.90009675  0.44152410  0.75606971     0.18100
H815        H  0.98652583  0.36222379  0.81895034     0.18100
F816        F  0.94952840  0.40332491  0.86131453    -0.19600
loop_ 
_geom_bond_atom_site_label_1 
_geom_bond_atom_site_label_2 
_geom_bond_distance 
_geom_bond_site_symmetry_2 
_ccdc_geom_bond_type 
O1            V9   1.900       .  S
O1           C11   1.265       .  A
O2            V9   1.900       .  S
O2           C12   1.264       .  A
O3            V9   1.901       .  S
O3           C13   1.265       .  A
O4            V9   1.897       .  S
O4           C14   1.264       .  A
O5           V10   1.896       .  S
O5           C14   1.263       .  A
O6           V10   1.896       .  S
O6           C13   1.264       .  A
O7           V10   1.899       .  S
O7           C12   1.265       .  A
O8           V10   1.903       .  S
O8           C11   1.265       .  A
V9           V10   2.087       .  T
C11         C778   1.480       .  S
C12         C798   1.477       .  S
C13         C808   1.476       .  S
C14         C788   1.471       .  S
O15          V23   1.892       .  S
O15          C25   1.262       .  A
O16          V23   1.893   1_556  S
O16          C26   1.263       .  A
O17          V23   1.894   1_556  S
O17          C27   1.263       .  A
O18          V23   1.895       .  S
O18          C28   1.264       .  A
O19          V24   1.898       .  S
O19          C28   1.264       .  A
O20          V24   1.900   1_556  S
O20          C27   1.265       .  A
O21          V24   1.899   1_556  S
O21          C26   1.265       .  A
O22          V24   1.898       .  S
O22          C25   1.264       .  A
V23          V24   2.088       .  T
C25         C768   1.466       .  S
C26         C791   1.476       .  S
C27         C751   1.474       .  S
C28         C761   1.473       .  S
O29          V37   1.904       .  S
O29          C39   1.266       .  A
O30          V37   1.904       .  S
O30          C40   1.266       .  A
O31          V37   1.897       .  S
O31          C41   1.264       .  A
O32          V37   1.896       .  S
O32          C42   1.263       .  A
O33          V38   1.897       .  S
O33          C42   1.264       .  A
O34          V38   1.896       .  S
O34          C41   1.264       .  A
O35          V38   1.898       .  S
O35          C40   1.264       .  A
O36          V38   1.898       .  S
O36          C39   1.264       .  A
V37          V38   2.087       .  T
C39         C738   1.481       .  S
C40         C721   1.478       .  S
C41         C748   1.474       .  S
C42         C731   1.472       .  S
O43          V51   1.895       .  S
O43          C53   1.263       .  A
O44          V51   1.896   1_565  S
O44          C54   1.264       .  A
O45          V51   1.897   1_565  S
O45          C55   1.264       .  A
O46          V51   1.892       .  S
O46          C56   1.262       .  A
O47          V52   1.900   1_545  S
O47          C56   1.264       .  A
O48          V52   1.903       .  S
O48          C55   1.265       .  A
O49          V52   1.904       .  S
O49          C54   1.266       .  A
O50          V52   1.904   1_545  S
O50          C53   1.265       .  A
V51          V52   2.088   1_545  T
C53         C698   1.472       .  S
C54         C688   1.477       .  S
C55         C718   1.479       .  S
C56         C708   1.466       .  S
O57          V65   1.895   1_655  S
O57          C67   1.263       .  A
O58          V65   1.896       .  S
O58          C68   1.263       .  A
O59          V65   1.902       .  S
O59          C69   1.265       .  A
O60          V65   1.905   1_655  S
O60          C70   1.266       .  A
O61          V66   1.897   1_655  S
O61          C70   1.264       .  A
O62          V66   1.896       .  S
O62          C69   1.263       .  A
O63          V66   1.892       .  S
O63          C68   1.263       .  A
O64          V66   1.895   1_655  S
O64          C67   1.263       .  A
V65          V66   2.088       .  T
C67         C658   1.467       .  S
C68         C678   1.468       .  S
C69         C671   1.474       .  S
C70         C781   1.478       .  S
O71          V79   1.895       .  S
O71          C81   1.263       .  A
O72          V79   1.898       .  S
O72          C82   1.264       .  A
O73          V79   1.904       .  S
O73          C83   1.265       .  A
O74          V79   1.901       .  S
O74          C84   1.265       .  A
O75          V80   1.900       .  S
O75          C84   1.264       .  A
O76          V80   1.898       .  S
O76          C83   1.265       .  A
O77          V80   1.898       .  S
O77          C82   1.265       .  A
O78          V80   1.895       .  S
O78          C81   1.264       .  A
V79          V80   2.087       .  T
C81         C661   1.474       .  S
C82         C651   1.477       .  S
C83         C641   1.479       .  S
C84         C691   1.478       .  S
O85          V93   1.895       .  S
O85          C95   1.264       .  A
O86          V93   1.896       .  S
O86          C96   1.264       .  A
O87          V93   1.895       .  S
O87          C97   1.263       .  A
O88          V93   1.895       .  S
O88          C98   1.264       .  A
O89          V94   1.907       .  S
O89          C98   1.267       .  A
O90          V94   1.907       .  S
O90          C97   1.266       .  A
O91          V94   1.904       .  S
O91          C96   1.265       .  A
O92          V94   1.903       .  S
O92          C95   1.265       .  A
V93          V94   2.086       .  T
C95         C631   1.480       .  S
C96         C701   1.482       .  S
C97         C618   1.481       .  S
C98         C608   1.482       .  S
O99         V107   1.896       .  S
O99         C109   1.264   1_554  A
O100        V107   1.898       .  S
O100        C110   1.264       .  A
O101        V107   1.897       .  S
O101        C111   1.264       .  A
O102        V107   1.897   1_556  S
O102        C112   1.263       .  A
O103        V108   1.903       .  S
O103        C112   1.266   1_554  A
O104        V108   1.907       .  S
O104        C111   1.266       .  A
O105        V108   1.904       .  S
O105        C110   1.265       .  A
O106        V108   1.903       .  S
O106        C109   1.265   1_554  A
V107        V108   2.087       .  T
C109        C801   1.476       .  S
C110        C601   1.477       .  S
C111        C588   1.478       .  S
C112        C621   1.475       .  S
O113        V121   1.904       .  S
O113        C123   1.265       .  A
O114        V121   1.903       .  S
O114        C124   1.266       .  A
O115        V121   1.896       .  S
O115        C125   1.264       .  A
O116        V121   1.901       .  S
O116        C126   1.265       .  A
O117        V122   1.891       .  S
O117        C126   1.263       .  A
O118        V122   1.890       .  S
O118        C125   1.263       .  A
O119        V122   1.902       .  S
O119        C124   1.265       .  A
O120        V122   1.900       .  S
O120        C123   1.264       .  A
V121        V122   2.088       .  T
C123        C568   1.475       .  S
C124        C591   1.482       .  S
C125        C578   1.469       .  S
C126        C758   1.472       .  S
O127        V135   1.904       .  S
O127        C137   1.266   1_455  A
O128        V135   1.904       .  S
O128        C138   1.266       .  A
O129        V135   1.899       .  S
O129        C139   1.264       .  A
O130        V135   1.896       .  S
O130        C140   1.264   1_455  A
O131        V136   1.905       .  S
O131        C140   1.266   1_455  A
O132        V136   1.904       .  S
O132        C139   1.266       .  A
O133        V136   1.901       .  S
O133        C138   1.265       .  A
O134        V136   1.901       .  S
O134        C137   1.265   1_455  A
V135        V136   2.086       .  T
C137        C571   1.486       .  S
C138        C548   1.483       .  S
C139        C561   1.480       .  S
C140        C638   1.479       .  S
O141        V149   1.891       .  S
O141        C151   1.262       .  A
O142        V149   1.888       .  S
O142        C152   1.263       .  A
O143        V149   1.901       .  S
O143        C153   1.265       .  A
O144        V149   1.900       .  S
O144        C154   1.264       .  A
O145        V150   1.905       .  S
O145        C154   1.266       .  A
O146        V150   1.904       .  S
O146        C153   1.265       .  A
O147        V150   1.907       .  S
O147        C152   1.266       .  A
O148        V150   1.905       .  S
O148        C151   1.266       .  A
V149        V150   2.086       .  T
C151        C668   1.476       .  S
C152        C541   1.481       .  S
C153        C551   1.480       .  S
C154        C528   1.480       .  S
O155        V163   1.906       .  S
O155        C165   1.266       .  A
O156        V163   1.906   1_565  S
O156        C166   1.266       .  A
O157        V163   1.895   1_565  S
O157        C167   1.263       .  A
O158        V163   1.895       .  S
O158        C168   1.263       .  A
O159        V164   1.895       .  S
O159        C168   1.263       .  A
O160        V164   1.897   1_565  S
O160        C167   1.264       .  A
O161        V164   1.898   1_565  S
O161        C166   1.264       .  A
O162        V164   1.897       .  S
O162        C165   1.263       .  A
V163        V164   2.088       .  T
C165        C611   1.477       .  S
C166        C531   1.480       .  S
C167        C728   1.473       .  S
C168        C518   1.467       .  S
O169        V177   1.895   1_565  S
O169        C179   1.263       .  A
O170        V177   1.896       .  S
O170        C180   1.264       .  A
O171        V177   1.905       .  S
O171        C181   1.266       .  A
O172        V177   1.904   1_565  S
O172        C182   1.266       .  A
O173        V178   1.901   1_565  S
O173        C182   1.265       .  A
O174        V178   1.902       .  S
O174        C181   1.265       .  A
O175        V178   1.901       .  S
O175        C180   1.264       .  A
O176        V178   1.900   1_565  S
O176        C179   1.265       .  A
V177        V178   2.087       .  T
C179        C648   1.473       .  S
C180        C511   1.473       .  S
C181        C488   1.481       .  S
C182        C501   1.482       .  S
O183        V191   1.900       .  S
O183        C193   1.264       .  A
O184        V191   1.900       .  S
O184        C194   1.264       .  A
O185        V191   1.906       .  S
O185        C195   1.266       .  A
O186        V191   1.909       .  S
O186        C196   1.266       .  A
O187        V192   1.896       .  S
O187        C196   1.264       .  A
O188        V192   1.899       .  S
O188        C195   1.264       .  A
O189        V192   1.889       .  S
O189        C194   1.263       .  A
O190        V192   1.890       .  S
O190        C193   1.262       .  A
V191        V192   2.088       .  T
C193        C478   1.467       .  S
C194        C771   1.474       .  S
C195        C498   1.480       .  S
C196        C468   1.478       .  S
O197        V205   1.897       .  S
O197        C207   1.264       .  A
O198        V205   1.898       .  S
O198        C208   1.264       .  A
O199        V205   1.905       .  S
O199        C209   1.266       .  A
O200        V205   1.902       .  S
O200        C210   1.265       .  A
O201        V206   1.901       .  S
O201        C210   1.265       .  A
O202        V206   1.901       .  S
O202        C209   1.265       .  A
O203        V206   1.894       .  S
O203        C208   1.263       .  A
O204        V206   1.894       .  S
O204        C207   1.264       .  A
V205        V206   2.087       .  T
C207        C681   1.473       .  S
C208        C458   1.472       .  S
C209        C438   1.482       .  S
C210        C448   1.483       .  S
O211        V219   1.905       .  S
O211        C221   1.266       .  A
O212        V219   1.900   1_556  S
O212        C222   1.265       .  A
O213        V219   1.897   1_556  S
O213        C223   1.264       .  A
O214        V219   1.898       .  S
O214        C224   1.264       .  A
O215        V220   1.902       .  S
O215        C224   1.265       .  A
O216        V220   1.905       .  S
O216        C223   1.266   1_554  A
O217        V220   1.902   1_556  S
O217        C222   1.265       .  A
O218        V220   1.901       .  S
O218        C221   1.265       .  A
V219        V220   2.087       .  T
C221        C471   1.483       .  S
C222        C451   1.476       .  S
C223        C741   1.477       .  S
C224        C431   1.480       .  S
O225        V233   1.898       .  S
O225        C235   1.264       .  A
O226        V233   1.897       .  S
O226        C236   1.264       .  A
O227        V233   1.899       .  S
O227        C237   1.264       .  A
O228        V233   1.899       .  S
O228        C238   1.264       .  A
O229        V234   1.899       .  S
O229        C238   1.264       .  A
O230        V234   1.898       .  S
O230        C237   1.264       .  A
O231        V234   1.903       .  S
O231        C236   1.266       .  A
O232        V234   1.903       .  S
O232        C235   1.265       .  A
V233        V234   2.088       .  T
C235        C558   1.477       .  S
C236        C408   1.478       .  S
C237        C421   1.472       .  S
C238        C428   1.473       .  S
O239        V247   1.901   1_556  S
O239        C249   1.265       .  A
O240        V247   1.900       .  S
O240        C250   1.264       .  A
O241        V247   1.902       .  S
O241        C251   1.265       .  A
O242        V247   1.900   1_556  S
O242        C252   1.264       .  A
O243        V248   1.898   1_556  S
O243        C252   1.264       .  A
O244        V248   1.898       .  S
O244        C251   1.264       .  A
O245        V248   1.894       .  S
O245        C250   1.263       .  A
O246        V248   1.893   1_556  S
O246        C249   1.263       .  A
V247        V248   2.088       .  T
C249        C461   1.475       .  S
C250        C398   1.472       .  S
C251        C411   1.476       .  S
C252        C628   1.472       .  S
O253        V261   1.904       .  S
O253        C263   1.266       .  A
O254        V261   1.902       .  S
O254        C264   1.265       .  A
O255        V261   1.896       .  S
O255        C265   1.264       .  A
O256        V261   1.896       .  S
O256        C266   1.264       .  A
O257        V262   1.900       .  S
O257        C266   1.265       .  A
O258        V262   1.900       .  S
O258        C265   1.265       .  A
O259        V262   1.897       .  S
O259        C264   1.263       .  A
O260        V262   1.897       .  S
O260        C263   1.264       .  A
V261        V262   2.087       .  T
C263        C598   1.480       .  S
C264        C388   1.473       .  S
C265        C401   1.476       .  S
C266        C508   1.477       .  S
O267        V275   1.896   1_655  S
O267        C277   1.264       .  A
O268        V275   1.897       .  S
O268        C278   1.263       .  A
O269        V275   1.894       .  S
O269        C279   1.263       .  A
O270        V275   1.893       .  S
O270        C280   1.263   1_455  A
O271        V276   1.904       .  S
O271        C280   1.265   1_455  A
O272        V276   1.903       .  S
O272        C279   1.265       .  A
O273        V276   1.908       .  S
O273        C278   1.267       .  A
O274        V276   1.909       .  S
O274        C277   1.266   1_455  A
V275        V276   2.088       .  T
C277        C368   1.478       .  S
C278        C441   1.480       .  S
C279        C378   1.472       .  S
C280        C811   1.475       .  S
O281        V289   1.903       .  S
O281        C291   1.265       .  A
O282        V289   1.901       .  S
O282        C292   1.265       .  A
O283        V289   1.896       .  S
O283        C293   1.264       .  A
O284        V289   1.896       .  S
O284        C294   1.264       .  A
O285        V290   1.895       .  S
O285        C294   1.264       .  A
O286        V290   1.898       .  S
O286        C293   1.263       .  A
O287        V290   1.907       .  S
O287        C292   1.266       .  A
O288        V290   1.903       .  S
O288        C291   1.265       .  A
V289        V290   2.087       .  T
C291        C371   1.482       .  S
C292        C491   1.485       .  S
C293        C361   1.471       .  S
C294        C711   1.476       .  S
O295        V303   1.898       .  S
O295        C305   1.265       .  A
O296        V303   1.898       .  S
O296        C306   1.264       .  A
O297        V303   1.892       .  S
O297        C307   1.263       .  A
O298        V303   1.892       .  S
O298        C308   1.263       .  A
O299        V304   1.898       .  S
O299        C308   1.265       .  A
O300        V304   1.897       .  S
O300        C307   1.265       .  A
O301        V304   1.899       .  S
O301        C306   1.264       .  A
O302        V304   1.899       .  S
O302        C305   1.264       .  A
V303        V304   2.087       .  T
C305        C381   1.479       .  S
C306        C348   1.474       .  S
C307        C338   1.475       .  S
C308        C521   1.474       .  S
O309        V317   1.900       .  S
O309        C319   1.263       .  A
O310        V317   1.898   1_545  S
O310        C320   1.265       .  A
O311        V317   1.895   1_545  S
O311        C321   1.264       .  A
O312        V317   1.893       .  S
O312        C322   1.263       .  A
O313        V318   1.899       .  S
O313        C322   1.265       .  A
O314        V318   1.900   1_545  S
O314        C321   1.265       .  A
O315        V318   1.899   1_545  S
O315        C320   1.264       .  A
O316        V318   1.895       .  S
O316        C319   1.263       .  A
V317        V318   2.087       .  T
C319        C538   1.465       .  S
C320        C391   1.480       .  S
C321        C351   1.476       .  S
C322        C481   1.475       .  S
O323        V331   1.897   1_655  S
O323        C333   1.264       .  A
O324        V331   1.899       .  S
O324        C334   1.265       .  A
O325        V331   1.893       .  S
O325        C335   1.262       .  A
O326        V331   1.890   1_655  S
O326        C336   1.263       .  A
O327        V332   1.897   1_655  S
O327        C336   1.264       .  A
O328        V332   1.896       .  S
O328        C335   1.264       .  A
O329        V332   1.897       .  S
O329        C334   1.264       .  A
O330        V332   1.897   1_655  S
O330        C333   1.264       .  A
V331        V332   2.088       .  T
C333        C358   1.474       .  S
C334        C418   1.478       .  S
C335        C341   1.466       .  S
C336        C581   1.469       .  S
C337        C338   1.405       .  A
C337        C342   1.397       .  A
C337        H344   1.083       .  S
C338        C339   1.409       .  A
C339        C340   1.395       .  A
C339        F346   1.357       .  S
C340        C341   1.400       .  A
C340        H345   1.083       .  S
C341        C342   1.405       .  A
C342        F343   1.358       .  S
C347        C348   1.403       .  A
C347        C352   1.396       .  A
C347        H354   1.083       .  S
C348        C349   1.406       .  A
C349        C350   1.399       .  A
C349        F356   1.358       .  S
C350        C351   1.405       .  A
C350        H355   1.084       .  S
C351        C352   1.407       .  A
C352        F353   1.358       .  S
C357        C358   1.404       .  A
C357        C362   1.396       .  A
C357        H364   1.083       .  S
C358        C359   1.407       .  A
C359        C360   1.398       .  A
C359        F366   1.358       .  S
C360        C361   1.404       .  A
C360        H365   1.084       .  S
C361        C362   1.405       .  A
C362        F363   1.357       .  S
C367        C368   1.404       .  A
C367        C372   1.398       .  A
C367        H374   1.083       .  S
C368        C369   1.407       .  A
C369        C370   1.402       .  A
C369        F376   1.358       .  S
C370        C371   1.407       .  A
C370        H375   1.083       .  S
C371        C372   1.407       .  A
C372        F373   1.357       .  S
C377        C378   1.403       .  A
C377        C382   1.399       .  A
C377        H384   1.084       .  S
C378        C379   1.404       .  A
C379        C380   1.397       .  A
C379        F386   1.357       .  S
C380        C381   1.405       .  A
C380        H385   1.083       .  S
C381        C382   1.409       .  A
C382        F383   1.358       .  S
C387        C388   1.403       .  A
C387        C392   1.397       .  A
C387        H394   1.083       .  S
C388        C389   1.404       .  A
C389        C390   1.399       .  A
C389        F396   1.357       .  S
C390        C391   1.407       .  A
C390        H395   1.083       .  S
C391        C392   1.408       .  A
C392        F393   1.358       .  S
C397        C398   1.403       .  A
C397        C402   1.396       .  A
C397        H404   1.083       .  S
C398        C399   1.405       .  A
C399        C400   1.398       .  A
C399        F406   1.358       .  S
C400        C401   1.406       .  A
C400        H405   1.083       .  S
C401        C402   1.407       .  A
C402        F403   1.357       .  S
C407        C408   1.405       .  A
C407        C412   1.399       .  A
C407        H414   1.083       .  S
C408        C409   1.408       .  A
C409        C410   1.399       .  A
C409        F416   1.357       .  S
C410        C411   1.404       .  A
C410        H415   1.084       .  S
C411        C412   1.406       .  A
C412        F413   1.358       .  S
C417        C418   1.405       .  A
C417        C422   1.397       .  A
C417        H424   1.084       .  S
C418        C419   1.409       .  A
C419        C420   1.398       .  A
C419        F426   1.357       .  S
C420        C421   1.402       .  A
C420        H425   1.083       .  S
C421        C422   1.405       .  A
C422        F423   1.358       .  S
C427        C428   1.403       .  A
C427        C432   1.398       .  A
C427        H434   1.084       .  S
C428        C429   1.405       .  A
C429        C430   1.399       .  A
C429        F436   1.357       .  S
C430        C431   1.406       .  A
C430        H435   1.083       .  S
C431        C432   1.409       .  A
C432        F433   1.357       .  S
C437        C438   1.405       .  A
C437        C442   1.400       .  A
C437        H444   1.083       .  S
C438        C439   1.407       .  A
C439        C440   1.401       .  A
C439        F446   1.357       .  S
C440        C441   1.405       .  A
C440        H445   1.083       .  S
C441        C442   1.407       .  A
C442        F443   1.357       .  S
C447        C448   1.406       .  A
C447        C452   1.399       .  A
C447        H454   1.086       .  S
C448        C449   1.410       .  A
C449        C450   1.399       .  A
C449        F456   1.357       .  S
C450        C451   1.402       .  A
C450        H455   1.086       .  S
C451        C452   1.406       .  A
C452        F453   1.358       .  S
C457        C458   1.404       .  A
C457        C462   1.397       .  A
C457        H464   1.084       .  S
C458        C459   1.405       .  A
C459        C460   1.396       .  A
C459        F466   1.358       .  S
C460        C461   1.405       .  A
C460        H465   1.083       .  S
C461        C462   1.407       .  A
C462        F463   1.357       .  S
C467        C468   1.403       .  A
C467        C472   1.398       .  A
C467        H474   1.083       .  S
C468        C469   1.407       .  A
C469        C470   1.403       .  A
C469        F476   1.358       .  S
C470        C471   1.407       .  A
C470        H475   1.083       .  S
C471        C472   1.408       .  A
C472        F473   1.357       .  S
C477        C478   1.402       .  A
C477        C482   1.396       .  A
C477        H484   1.084       .  S
C478        C479   1.404       .  A
C479        C480   1.397       .  A
C479        F486   1.358       .  S
C480        C481   1.406       .  A
C480        H485   1.083       .  S
C481        C482   1.407       .  A
C482        F483   1.357       .  S
C487        C488   1.405       .  A
C487        C492   1.402       .  A
C487        H494   1.084       .  S
C488        C489   1.407       .  A
C489        C490   1.400       .  A
C489        F496   1.358       .  S
C490        C491   1.406       .  A
C490        H495   1.083       .  S
C491        C492   1.409       .  A
C492        F493   1.357       .  S
C497        C498   1.405       .  A
C497        C502   1.400       .  A
C497        H504   1.084       .  S
C498        C499   1.407       .  A
C499        C500   1.400       .  A
C499        F506   1.358       .  S
C500        C501   1.406       .  A
C500        H505   1.084       .  S
C501        C502   1.408       .  A
C502        F503   1.357       .  S
C507        C508   1.406       .  A
C507        C512   1.399       .  A
C507        H514   1.083       .  S
C508        C509   1.407       .  A
C509        C510   1.396       .  A
C509        F516   1.358       .  S
C510        C511   1.403       .  A
C510        H515   1.084       .  S
C511        C512   1.405       .  A
C512        F513   1.357       .  S
C517        C518   1.402       .  A
C517        C522   1.396       .  A
C517        H524   1.084       .  S
C518        C519   1.403       .  A
C519        C520   1.396       .  A
C519        F526   1.358       .  S
C520        C521   1.406       .  A
C520        H525   1.083       .  S
C521        C522   1.407       .  A
C522        F523   1.358       .  S
C527        C528   1.404       .  A
C527        C532   1.399       .  A
C527        H534   1.083       .  S
C528        C529   1.408       .  A
C529        C530   1.401       .  A
C529        F536   1.357       .  S
C530        C531   1.405       .  A
C530        H535   1.084       .  S
C531        C532   1.407       .  A
C532        F533   1.358       .  S
C537        C538   1.402       .  A
C537        C542   1.403       .  A
C537        H544   1.084       .  S
C538        C539   1.400       .  A
C539        C540   1.392       .  A
C539        F546   1.358       .  S
C540        C541   1.406       .  A
C540        H545   1.083       .  S
C541        C542   1.411       .  A
C542        F543   1.357       .  S
C547        C548   1.406       .  A
C547        C552   1.401       .  A
C547        H554   1.083       .  S
C548        C549   1.408       .  A
C549        C550   1.400       .  A
C549        F556   1.357       .  S
C550        C551   1.404       .  A
C550        H555   1.083       .  S
C551        C552   1.407       .  A
C552        F553   1.358       .  S
C557        C558   1.404       .  A
C557        C562   1.399       .  A
C557        H564   1.084       .  S
C558        C559   1.407       .  A
C559        C560   1.400       .  A
C559        F566   1.357       .  S
C560        C561   1.405       .  A
C560        H565   1.083       .  S
C561        C562   1.408       .  A
C562        F563   1.358       .  S
C567        C568   1.402       .  A
C567        C572   1.400       .  A
C567        H574   1.083       .  S
C568        C569   1.405       .  A
C569        C570   1.400       .  A
C569        F576   1.358       .  S
C570        C571   1.407       .  A
C570        H575   1.083       .  S
C571        C572   1.410       .  A
C572        F573   1.357       .  S
C577        C578   1.404       .  A
C577        C582   1.397       .  A
C577        H584   1.084       .  S
C578        C579   1.405       .  A
C579        C580   1.393       .  A
C579        F586   1.358       .  S
C580        C581   1.403       .  A
C580        H585   1.084       .  S
C581        C582   1.405       .  A
C582        F583   1.358       .  S
C587        C588   1.404       .  A
C587        C592   1.401       .  A
C587        H594   1.084       .  S
C588        C589   1.406       .  A
C589        C590   1.399       .  A
C589        F596   1.357       .  S
C590        C591   1.405       .  A
C590        H595   1.083       .  S
C591        C592   1.409       .  A
C592        F593   1.358       .  S
C597        C598   1.405       .  A
C597        C602   1.397       .  A
C597        H604   1.084       .  S
C598        C599   1.408       .  A
C599        C600   1.401       .  A
C599        F606   1.358       .  S
C600        C601   1.405       .  A
C600        H605   1.084       .  S
C601        C602   1.405       .  A
C602        F603   1.357       .  S
C607        C608   1.405       .  A
C607        C612   1.401       .  A
C607        H614   1.083       .  S
C608        C609   1.410       .  A
C609        C610   1.398       .  A
C609        F616   1.358       .  S
C610        C611   1.402       .  A
C610        H615   1.083       .  S
C611        C612   1.407       .  A
C612        F613   1.357       .  S
C617        C618   1.406       .  A
C617        C622   1.401       .  A
C617        H624   1.083       .  S
C618        C619   1.409       .  A
C619        C620   1.397       .  A
C619        F626   1.357       .  S
C620        C621   1.402       .  A
C620        H625   1.084       .  S
C621        C622   1.406       .  A
C622        F623   1.358       .  S
C627        C628   1.402       .  A
C627        C632   1.397       .  A
C627        H634   1.084       .  S
C628        C629   1.405       .  A
C629        C630   1.399       .  A
C629        F636   1.357       .  S
C630        C631   1.406       .  A
C630        H635   1.083       .  S
C631        C632   1.409       .  A
C632        F633   1.358       .  S
C637        C638   1.405       .  A
C637        C642   1.401       .  A
C637        H644   1.083       .  S
C638        C639   1.407       .  A
C639        C640   1.397       .  A
C639        F646   1.358       .  S
C640        C641   1.404       .  A
C640        H645   1.083       .  S
C641        C642   1.409       .  A
C642        F643   1.358       .  S
C647        C648   1.402       .  A
C647        C652   1.398       .  A
C647        H654   1.084       .  S
C648        C649   1.406       .  A
C649        C650   1.397       .  A
C649        F656   1.358       .  S
C650        C651   1.404       .  A
C650        H655   1.084       .  S
C651        C652   1.409       .  A
C652        F653   1.357       .  S
C657        C658   1.402       .  A
C657        C662   1.397       .  A
C657        H664   1.083       .  S
C658        C659   1.404       .  A
C659        C660   1.395       .  A
C659        F666   1.358       .  S
C660        C661   1.404       .  A
C660        H665   1.083       .  S
C661        C662   1.408       .  A
C662        F663   1.358       .  S
C667        C668   1.404       .  A
C667        C672   1.399       .  A
C667        H674   1.084       .  S
C668        C669   1.408       .  A
C669        C670   1.397       .  A
C669        F676   1.358       .  S
C670        C671   1.402       .  A
C670        H675   1.084       .  S
C671        C672   1.407       .  A
C672        F673   1.358       .  S
C677        C678   1.402       .  A
C677        C682   1.395       .  A
C677        H684   1.084       .  S
C678        C679   1.404       .  A
C679        C680   1.396       .  A
C679        F686   1.358       .  S
C680        C681   1.405       .  A
C680        H685   1.084       .  S
C681        C682   1.407       .  A
C682        F683   1.357       .  S
C687        C688   1.405       .  A
C687        C692   1.401       .  A
C687        H694   1.084       .  S
C688        C689   1.406       .  A
C689        C690   1.397       .  A
C689        F696   1.357       .  S
C690        C691   1.403       .  A
C690        H695   1.083       .  S
C691        C692   1.408       .  A
C692        F693   1.358       .  S
C697        C698   1.403       .  A
C697        C702   1.400       .  A
C697        H704   1.084       .  S
C698        C699   1.403       .  A
C699        C700   1.397       .  A
C699        F706   1.358       .  S
C700        C701   1.407       .  A
C700        H705   1.083       .  S
C701        C702   1.409       .  A
C702        F703   1.357       .  S
C707        C708   1.401       .  A
C707        C712   1.395       .  A
C707        H714   1.084       .  S
C708        C709   1.404       .  A
C709        C710   1.397       .  A
C709        F716   1.358       .  S
C710        C711   1.406       .  A
C710        H715   1.084       .  S
C711        C712   1.408       .  A
C712        F713   1.357       .  S
C717        C718   1.405       .  A
C717        C722   1.399       .  A
C717        H724   1.083       .  S
C718        C719   1.407       .  A
C719        C720   1.399       .  A
C719        F726   1.358       .  S
C720        C721   1.405       .  A
C720        H725   1.083       .  S
C721        C722   1.406       .  A
C722        F723   1.357       .  S
C727        C728   1.404       .  A
C727        C732   1.397       .  A
C727        H734   1.084       .  S
C728        C729   1.406       .  A
C729        C730   1.396       .  A
C729        F736   1.358       .  S
C730        C731   1.404       .  A
C730        H735   1.084       .  S
C731        C732   1.405       .  A
C732        F733   1.358       .  S
C737        C738   1.407       .  A
C737        C742   1.400       .  A
C737        H744   1.083       .  S
C738        C739   1.408       .  A
C739        C740   1.398       .  A
C739        F746   1.357       .  S
C740        C741   1.404       .  A
C740        H745   1.083       .  S
C741        C742   1.406       .  A
C742        F743   1.358       .  S
C747        C748   1.403       .  A
C747        C752   1.396       .  A
C747        H754   1.083       .  S
C748        C749   1.407       .  A
C749        C750   1.398       .  A
C749        F756   1.358       .  S
C750        C751   1.404       .  A
C750        H755   1.083       .  S
C751        C752   1.407       .  A
C752        F753   1.358       .  S
C757        C758   1.404       .  A
C757        C762   1.398       .  A
C757        H764   1.083       .  S
C758        C759   1.405       .  A
C759        C760   1.395       .  A
C759        F766   1.358       .  S
C760        C761   1.403       .  A
C760        H765   1.083       .  S
C761        C762   1.407       .  A
C762        F763   1.358       .  S
C767        C768   1.402       .  A
C767        C772   1.398       .  A
C767        H774   1.084       .  S
C768        C769   1.403       .  A
C769        C770   1.393       .  A
C769        F776   1.358       .  S
C770        C771   1.404       .  A
C770        H775   1.084       .  S
C771        C772   1.408       .  A
C772        F773   1.357       .  S
C777        C778   1.405       .  A
C777        C782   1.399       .  A
C777        H784   1.083       .  S
C778        C779   1.408       .  A
C779        C780   1.400       .  A
C779        F786   1.357       .  S
C780        C781   1.404       .  A
C780        H785   1.084       .  S
C781        C782   1.407       .  A
C782        F783   1.357       .  S
C787        C788   1.401       .  A
C787        C792   1.395       .  A
C787        H794   1.084       .  S
C788        C789   1.406       .  A
C789        C790   1.398       .  A
C789        F796   1.358       .  S
C790        C791   1.405       .  A
C790        H795   1.084       .  S
C791        C792   1.408       .  A
C792        F793   1.357       .  S
C797        C798   1.404       .  A
C797        C802   1.397       .  A
C797        H804   1.083       .  S
C798        C799   1.407       .  A
C799        C800   1.400       .  A
C799        F806   1.358       .  S
C800        C801   1.405       .  A
C800        H805   1.084       .  S
C801        C802   1.406       .  A
C802        F803   1.358       .  S
C807        C808   1.404       .  A
C807        C812   1.395       .  A
C807        H814   1.083       .  S
C808        C809   1.408       .  A
C809        C810   1.401       .  A
C809        F816   1.358       .  S
C810        C811   1.405       .  A
C810        H815   1.084       .  S
C811        C812   1.405       .  A
C812        F813   1.358       .  S
