geometry optimzed in LAMMPS
_audit_creation_date              2020-12-01 
_audit_creation_method            'lammps2cif' 
_symmetry_space_group_name_H-M    'P1' 
_symmetry_Int_Tables_number       1 
_symmetry_cell_setting            triclinic 
loop_ 
_symmetry_equiv_pos_as_xyz 
  x,y,z 
_cell_length_a                    22.97182753 
_cell_length_b                    34.28713164452416 
_cell_length_c                    34.40715267095925 
_cell_angle_alpha                 89.64857390159925 
_cell_angle_beta                  89.85060796402382 
_cell_angle_gamma                 89.92477121118688 
loop_ 
_atom_site_label 
_atom_site_type_symbol 
_atom_site_fract_x 
_atom_site_fract_y 
_atom_site_fract_z 
_atom_site_charge 
O1          O  0.34837759  0.27396339  0.02303573    -0.88700
C2          C  0.18833817  0.29710170  0.06715010     0.87400
Mg3        Mg  0.37208589  0.28867177  0.96459839     1.58100
O4          O  0.21392071  0.19841632  0.04735847    -0.88400
O5          O  0.34428040  0.22284573  0.06163845    -0.75700
C6          C  0.15249258  0.22253527  0.85865673     0.92400
O7          O  0.26090883  0.34305287  0.00205921    -0.75500
O8          O  0.19569302  0.24568684  0.85666076    -0.83000
Mg9        Mg  0.30835392  0.31914857  0.05624603     1.58000
C10         C  0.09580496  0.13182369  0.99073646     0.92400
O11         O  0.35738199  0.29975536  0.11195005    -0.81300
H12         H  0.26148126  0.15013630  0.05520563    -0.06600
C13         C  0.12812496  0.25884256  0.96244354     0.87300
O14         O  0.35607015  0.22504084  0.94617341    -0.75800
O15         O  0.23682556  0.28140990  0.06830641    -0.88600
O16         O  0.09976102  0.15399635  0.02020117    -0.81400
C17         C  0.11955953  0.21532827  0.12941894     0.92500
C18         C  0.34815779  0.27855063  0.14198767     0.92300
Mg19       Mg  0.19051083  0.18350717  0.94506774     1.58000
O20         O  0.14166568  0.20248025  0.88917156    -0.81300
O21         O  0.23651194  0.15922576  0.99935190    -0.75500
O22         O  0.17271916  0.22583101  0.13230279    -0.81400
O23         O  0.38045679  0.36216139  0.04315485    -0.83100
O24         O  0.32830004  0.27252223  0.86981600    -0.81400
C25         C  0.23755061  0.16840942  0.03510210     0.86800
O26         O  0.26268498  0.22098001  0.93369456    -0.88600
O27         O  0.15112488  0.22973558  0.97733447    -0.88700
O28         O  0.15462329  0.27982425  0.93747675    -0.75700
Mg29       Mg  0.25683789  0.22620423  0.09452093     1.58000
O30         O  0.09717776  0.20569727  0.09711943    -0.83100
H31         H  0.41386301  0.23570927  0.02741031    -0.06800
O32         O  0.28376827  0.30449083  0.95353094    -0.88400
H33         H  0.23391932  0.35187536  0.94654424    -0.06600
H34         H  0.31696658  0.17591564  0.92647892    -0.06800
C35         C  0.25908441  0.33393337  0.96626145     0.86700
C36         C  0.37089653  0.24425696  0.03706605     0.87300
C37         C  0.31179377  0.20610209  0.93470462     0.87400
H38         H  0.08485501  0.26721707  0.97163329    -0.06800
O39         O  0.14393750  0.27951140  0.05410613    -0.75800
Mg40       Mg  0.24298888  0.27519538  0.90610541     1.58000
H41         H  0.18412277  0.32716376  0.07604396    -0.06800
C42         C  0.40056446  0.37312013  0.01037660     0.92400
O43         O  0.39894668  0.30205854  0.90273119    -0.83100
C44         C  0.37910674  0.28739031  0.87163779     0.92400
O45         O  0.30591440  0.25457763  0.14380421    -0.83000
Mg46       Mg  0.12607824  0.21658680  0.03556582     1.58200
O47         O  0.39560532  0.35203950  0.98018052    -0.81400
O48         O  0.11792536  0.14113658  0.95806697    -0.83100
O49         O  0.84930361  0.77061717  0.02663245    -0.88700
C50         C  0.68764562  0.79896605  0.06390258     0.87400
Mg51       Mg  0.87991909  0.78367478  0.96934546     1.58100
O52         O  0.70938609  0.69977838  0.04469484    -0.88400
O53         O  0.83971339  0.72007677  0.06534147    -0.75700
C54         C  0.66524784  0.72570056  0.85345253     0.92400
O55         O  0.76931312  0.84230337  0.00167224    -0.75500
O56         O  0.70925109  0.74832574  0.85274521    -0.83000
Mg57       Mg  0.80934005  0.81728995  0.05791946     1.58000
C58         C  0.59144569  0.63644132  0.98372513     0.92400
O59         O  0.85087155  0.79758652  0.11596988    -0.81300
H60         H  0.75338982  0.65026165  0.05401564    -0.06600
C61         C  0.63452126  0.76217641  0.95645105     0.87300
O62         O  0.86050714  0.72098591  0.95000244    -0.75800
O63         O  0.73483004  0.78184183  0.06711528    -0.88600
O64         O  0.59513955  0.65872203  0.01311095    -0.81400
C65         C  0.60935292  0.71847162  0.12324514     0.92500
C66         C  0.83850760  0.77664993  0.14566233     0.92300
Mg67       Mg  0.69351173  0.68522204  0.94127262     1.58000
O68         O  0.65195478  0.70556702  0.88351078    -0.81300
O69         O  0.73326023  0.65999357  0.99738894    -0.75500
O70         O  0.66275459  0.72759309  0.12776899    -0.81400
O71         O  0.88514302  0.85751917  0.04800273    -0.83100
O72         O  0.84255962  0.77417894  0.87088988    -0.81400
C73         C  0.73214638  0.66917430  0.03316075     0.86800
O74         O  0.76897676  0.72059895  0.93199217    -0.88600
O75         O  0.65464007  0.73262008  0.97224351    -0.88700
O76         O  0.66429367  0.78244104  0.93260922    -0.75700
Mg77       Mg  0.74959776  0.72605740  0.09391068     1.58000
O78         O  0.58849229  0.71024806  0.09008618    -0.83100
H79         H  0.91295863  0.73148970  0.03420794    -0.06800
O80         O  0.79408232  0.80328209  0.95391048    -0.88400
H81         H  0.74862885  0.85231504  0.94516821    -0.06600
H82         H  0.82033563  0.67374050  0.92712891    -0.06800
C83         C  0.77046120  0.83345714  0.96579838     0.86700
C84         C  0.86944991  0.74078789  0.04188212     0.87300
C85         C  0.81656303  0.70398907  0.93547326     0.87400
H86         H  0.59096092  0.77157250  0.96386843    -0.06800
O87         O  0.64355950  0.78276877  0.04879551    -0.75800
Mg88       Mg  0.75479232  0.77615239  0.90448216     1.58000
H89         H  0.68456293  0.82912130  0.07268894    -0.06800
C90         C  0.91039877  0.86721746  0.01649671     0.92400
O91         O  0.91465137  0.79456254  0.90888405    -0.83100
C92         C  0.89536770  0.78472813  0.87572917     0.92400
O93         O  0.79577832  0.75296525  0.14563524    -0.83000
Mg94       Mg  0.62369543  0.72039911  0.02954163     1.58200
O95         O  0.90781988  0.84597179  0.98624213    -0.81400
O96         O  0.61637850  0.64479264  0.95165254    -0.83100
O97         O  0.84823326  0.22585280  0.47709152    -0.88700
C98         C  0.68828930  0.19940402  0.43626981     0.87400
Mg99       Mg  0.87443656  0.21172576  0.53490484     1.58100
O100        O  0.71014030  0.29835434  0.45503952    -0.88400
O101        O  0.84100046  0.27695595  0.43875159    -0.75700
C102        C  0.65403318  0.27249149  0.64483317     0.92400
O103        O  0.76614740  0.15397062  0.49909107    -0.75500
O104        O  0.69377530  0.24654700  0.64539511    -0.83000
Mg105      Mg  0.80995149  0.17977311  0.44441599     1.58000
C106        C  0.59188432  0.36363325  0.51351321     0.92400
O107        O  0.85569320  0.20041320  0.38842217    -0.81300
H108        H  0.75574467  0.34729985  0.44660436    -0.06600
C109        C  0.62846945  0.23674147  0.54073107     0.87300
O110        O  0.85537061  0.27443989  0.55427070    -0.75800
O111        O  0.73605824  0.21592089  0.43381587    -0.88600
O112        O  0.59584128  0.34188390  0.48366949    -0.81400
C113        C  0.61511246  0.27993517  0.37385461     0.92500
C114        C  0.84601931  0.22147548  0.35845177     0.92300
Mg115      Mg  0.68975345  0.31306348  0.55809334     1.58000
O116        O  0.64595471  0.29494777  0.61565187    -0.81300
O117        O  0.73300717  0.33754491  0.50283281    -0.75500
O118        O  0.66861840  0.27027956  0.37073204    -0.81400
O119        O  0.88523773  0.13887706  0.45563378    -0.83100
O120        O  0.82968770  0.22138906  0.63231059    -0.81400
C121        C  0.73310444  0.32860312  0.46702975     0.86800
O122        O  0.76253083  0.27591610  0.56912427    -0.88600
O123        O  0.64983693  0.26662053  0.52630243    -0.88700
O124        O  0.65667075  0.21522700  0.56427825    -0.75700
Mg125      Mg  0.75316819  0.27162112  0.40719201     1.58000
O126        O  0.59253209  0.28915964  0.40636318    -0.83100
H127        H  0.91182497  0.26535445  0.47204137    -0.06800
O128        O  0.78744552  0.19304884  0.54734780    -0.88400
H129        H  0.74206109  0.14386567  0.55505342    -0.06600
H130        H  0.81461245  0.32196541  0.57635282    -0.06800
C131        C  0.76492628  0.16279269  0.53495478     0.86700
C132        C  0.86909586  0.25600283  0.46288312     0.87300
C133        C  0.81075635  0.29187793  0.56750743     0.87400
H134        H  0.58529506  0.22793530  0.53198037    -0.06800
O135        O  0.64354237  0.21641515  0.44987553    -0.75800
Mg136      Mg  0.74457008  0.21997366  0.59546487     1.58000
H137        H  0.68507385  0.16911906  0.42798389    -0.06800
C138        C  0.90748840  0.12834797  0.48783812     0.92400
O139        O  0.90366298  0.19999517  0.59613783    -0.83100
C140        C  0.88266160  0.21046221  0.62870977     0.92400
O141        O  0.80292212  0.24483649  0.35676052    -0.83000
Mg142      Mg  0.62331798  0.27923278  0.46808852     1.58200
O143        O  0.90223026  0.14906592  0.51833779    -0.81400
O144        O  0.61502245  0.35427902  0.54583946    -0.83100
O145        O  0.34810172  0.72545656  0.47250421    -0.88700
C146        C  0.18665522  0.69780794  0.43550547     0.87400
Mg147      Mg  0.37862459  0.71378389  0.52996461     1.58100
O148        O  0.21156569  0.79708068  0.45248595    -0.88400
O149        O  0.34093134  0.77447879  0.43173637    -0.75700
C150        C  0.16515457  0.77535339  0.64465896     0.92400
O151        O  0.26722629  0.65511923  0.49918872    -0.75500
O152        O  0.20919646  0.75275121  0.64588103    -0.83000
Mg153      Mg  0.30830000  0.67815637  0.44232559     1.58000
C154        C  0.09616580  0.86366664  0.51231950     0.92400
O155        O  0.35066689  0.69658418  0.38422105    -0.81300
H156        H  0.25799024  0.84546627  0.44273476    -0.06600
C157        C  0.13466004  0.73743471  0.54242010     0.87300
O158        O  0.36083876  0.77702240  0.54781891    -0.75800
O159        O  0.23433325  0.71414048  0.43171171    -0.88600
O160        O  0.09944153  0.84104273  0.48316559    -0.81400
C161        C  0.11042188  0.77880434  0.37475934     0.92500
C162        C  0.33918834  0.71665032  0.35380317     0.92300
Mg163      Mg  0.19508714  0.81376386  0.55606696     1.58000
O164        O  0.15203144  0.79486915  0.61417425    -0.81300
O165        O  0.23632484  0.83706749  0.49938931    -0.75500
O166        O  0.16339213  0.76876578  0.36936764    -0.81400
O167        O  0.38392564  0.63708098  0.45354713    -0.83100
O168        O  0.34185862  0.72548972  0.62833732    -0.81400
C169        C  0.23553139  0.82732584  0.46374123     0.86800
O170        O  0.26946538  0.77804753  0.56626596    -0.88600
O171        O  0.15570960  0.76634928  0.52596831    -0.88700
O172        O  0.16358227  0.71745191  0.56691636    -0.75700
Mg173      Mg  0.25064994  0.76920070  0.40345965     1.58000
O174        O  0.09081395  0.78765884  0.40813696    -0.83100
H175        H  0.41336100  0.76300504  0.46350404    -0.06800
O176        O  0.29269881  0.69497755  0.54606884    -0.88400
H177        H  0.24594292  0.64674461  0.55591209    -0.06600
H178        H  0.32112712  0.82471772  0.57036792    -0.06800
C179        C  0.26840285  0.66482256  0.53485168     0.86700
C180        C  0.36957541  0.75424801  0.45613685     0.87300
C181        C  0.31714695  0.79437795  0.56243443     0.87400
H182        H  0.09097622  0.72839987  0.53511667    -0.06800
O183        O  0.14312505  0.71500847  0.45048341    -0.75800
Mg184      Mg  0.25409590  0.72338921  0.59491623     1.58000
H185        H  0.18262729  0.66752658  0.42736318    -0.06800
C186        C  0.40730464  0.62844822  0.48595280     0.92400
O187        O  0.41387434  0.70430798  0.59045899    -0.83100
C188        C  0.39472399  0.71491127  0.62347657     0.92400
O189        O  0.29621076  0.74017815  0.35240961    -0.83000
Mg190      Mg  0.12544417  0.77817615  0.46847353     1.58200
O191        O  0.40410176  0.65111101  0.51506541    -0.81400
O192        O  0.11951809  0.85484138  0.54470000    -0.83100
C193        C  0.93856326  0.09040853  0.48999482    -0.01600
C194        C  0.94581196  0.06772073  0.45654836    -0.09600
C195        C  0.97120401  0.03075514  0.45859095    -0.18500
C196        C  0.99022031  0.01497285  0.49444747     0.03900
C197        C  0.98390780  0.03838963  0.52818597     0.18100
C198        C  0.95839643  0.07560857  0.52568548    -0.19900
C199        C  0.00256395  0.02440030  0.56436259    -0.21100
C200        C  0.02732987  0.98755546  0.56785742    -0.19700
C201        C  0.03372535  0.96363327  0.53532242     0.19500
C202        C  0.01509800  0.97686242  0.49812124     0.01600
C203        C  0.02199501  0.95125531  0.46635040    -0.14400
C204        C  0.04695544  0.91440847  0.47129258    -0.12100
C205        C  0.06604804  0.90172294  0.50792910     0.01200
C206        C  0.05894228  0.92653817  0.53984160    -0.24300
H207        H  0.93112353  0.07835516  0.42852826     0.09200
H208        H  0.97498587  0.01523169  0.43158145     0.12700
H209        H  0.95306858  0.09278241  0.55181091     0.11500
H210        H  0.99793847  0.04208851  0.59018454     0.12700
H211        H  0.04142843  0.97764114  0.59629647     0.11700
H212        H  0.00869006  0.95879774  0.43726153     0.08800
H213        H  0.05207988  0.89599377  0.44604105     0.12000
H214        H  0.07350822  0.91713029  0.56835346     0.13900
C215        C  0.43725881  0.59052304  0.49061230    -0.01600
C216        C  0.44790192  0.57560929  0.52791758    -0.09600
C217        C  0.47215922  0.53868056  0.53306608    -0.18500
C218        C  0.48709336  0.51531774  0.50082786     0.03900
C219        C  0.47802764  0.53108560  0.46298495     0.18100
C220        C  0.45281043  0.56816003  0.45822656    -0.19900
C221        C  0.49402702  0.50971794  0.43011557    -0.21100
C222        C  0.51868703  0.47285832  0.43397872    -0.19700
C223        C  0.52706649  0.45619768  0.47078636     0.19500
C224        C  0.51100627  0.47704085  0.50477178     0.01600
C225        C  0.51942505  0.45857059  0.54120410    -0.14400
C226        C  0.54441172  0.42156820  0.54377847    -0.12100
C227        C  0.56130410  0.40148870  0.51027993     0.01200
C228        C  0.55182704  0.41883065  0.47381388    -0.24300
H229        H  0.43625501  0.59223552  0.55346352     0.09200
H230        H  0.47870430  0.52937771  0.56268082     0.12700
H231        H  0.44518728  0.57957827  0.42921901     0.11500
H232        H  0.48760599  0.52165445  0.40119665     0.12700
H233        H  0.53095517  0.45715792  0.40795997     0.11700
H234        H  0.50726975  0.47187352  0.56830886     0.08800
H235        H  0.55081147  0.40868825  0.57228029     0.12000
H236        H  0.56497760  0.40360359  0.44768385     0.13900
C237        C  0.93605111  0.78507829  0.84217038    -0.01600
C238        C  0.99632896  0.78583556  0.84844886    -0.09600
C239        C  0.03543502  0.78483697  0.81735877    -0.18500
C240        C  0.01549993  0.78342895  0.77856693     0.03900
C241        C  0.95432119  0.78409917  0.77222338     0.18100
C242        C  0.91538763  0.78435396  0.80386522    -0.19900
C243        C  0.93235325  0.78461192  0.73432275    -0.21100
C244        C  0.96982108  0.78464411  0.70250710    -0.19700
C245        C  0.03019174  0.78307455  0.70776947     0.19500
C246        C  0.05396986  0.78167550  0.74586798     0.01600
C247        C  0.11510456  0.77782132  0.74949066    -0.14400
C248        C  0.15093349  0.77576805  0.71667442    -0.12100
C249        C  0.12734187  0.77841295  0.67930535     0.01200
C250        C  0.06694683  0.78227917  0.67506055    -0.24300
H251        H  0.01359629  0.78665736  0.87770117     0.09200
H252        H  0.08099294  0.78563223  0.82465780     0.12700
H253        H  0.86886220  0.78434888  0.79861183     0.11500
H254        H  0.88581370  0.78531929  0.72923211     0.12700
H255        H  0.95140130  0.78538831  0.67354996     0.11700
H256        H  0.13646921  0.77545487  0.77724456     0.08800
H257        H  0.19745795  0.77238391  0.72054296     0.12000
H258        H  0.04835659  0.78344860  0.64613512     0.13900
C259        C  0.87563813  0.77936261  0.18080062    -0.01600
C260        C  0.85708933  0.76328337  0.21625036    -0.09600
C261        C  0.89299496  0.76395803  0.24894867    -0.18500
C262        C  0.94945537  0.78036508  0.24716535     0.03900
C263        C  0.96822469  0.79651756  0.21111797     0.18100
C264        C  0.93110295  0.79642849  0.17867299    -0.19900
C265        C  0.02444401  0.81187332  0.20738277    -0.21100
C266        C  0.06310826  0.81060114  0.23842820    -0.19700
C267        C  0.04608037  0.79484785  0.27430552     0.19500
C268        C  0.98843698  0.78049121  0.27951560     0.01600
C269        C  0.97236352  0.76693235  0.31691141    -0.14400
C270        C  0.01215207  0.76683695  0.34745822    -0.12100
C271        C  0.06946338  0.77948028  0.34177548     0.01200
C272        C  0.08628518  0.79347339  0.30511837    -0.24300
H273        H  0.81458709  0.74984323  0.21874448     0.09200
H274        H  0.87576257  0.75052857  0.27490326     0.12700
H275        H  0.94627383  0.80860004  0.15132016     0.11500
H276        H  0.03903080  0.82426288  0.18000129     0.12700
H277        H  0.10666099  0.82207300  0.23434534     0.11700
H278        H  0.92920751  0.75666222  0.32366887     0.08800
H279        H  0.99818341  0.75622975  0.37571109     0.12000
H280        H  0.13032122  0.80405908  0.30083806     0.13900
C281        C  0.62754438  0.72315985  0.81878429    -0.01600
C282        C  0.65087708  0.72695112  0.78134414    -0.09600
C283        C  0.61498226  0.72490760  0.74863670    -0.18500
C284        C  0.55401885  0.71992946  0.75247708     0.03900
C285        C  0.53049426  0.71737691  0.79066655     0.18100
C286        C  0.56733351  0.71813807  0.82319531    -0.19900
C287        C  0.47024117  0.71467170  0.79623790    -0.21100
C288        C  0.43260696  0.71468890  0.76464789    -0.19700
C289        C  0.45432319  0.71620834  0.72663347     0.19500
C290        C  0.51542974  0.71807085  0.71994917     0.01600
C291        C  0.53516135  0.71759509  0.68100981    -0.14400
C292        C  0.49589522  0.71606852  0.65013792    -0.12100
C293        C  0.43563690  0.71546821  0.65678867     0.01200
C294        C  0.41520447  0.71559699  0.69522199    -0.24300
H295        H  0.69724155  0.73114688  0.77732283     0.09200
H296        H  0.63609069  0.72813782  0.72080764     0.12700
H297        H  0.54887247  0.71597681  0.85216862     0.11500
H298        H  0.45201495  0.71304240  0.82528124     0.12700
H299        H  0.38614534  0.71307324  0.76999922     0.11700
H300        H  0.58069981  0.71783425  0.67344627     0.08800
H301        H  0.51297220  0.71585808  0.62076059     0.12000
H302        H  0.36872902  0.71463269  0.70074778     0.13900
C303        C  0.37830396  0.71336269  0.31974900    -0.01600
C304        C  0.43625890  0.70173899  0.32493785    -0.09600
C305        C  0.47521176  0.70145828  0.29377677    -0.18500
C306        C  0.45719224  0.71245517  0.25601337     0.03900
C307        C  0.39757051  0.72222250  0.25048075     0.18100
C308        C  0.35908020  0.72321127  0.28231455    -0.19900
C309        C  0.37682883  0.73111688  0.21325030    -0.21100
C310        C  0.41411184  0.73068304  0.18133601    -0.19700
C311        C  0.47342114  0.72251035  0.18604448     0.19500
C312        C  0.49606514  0.71395175  0.22355818     0.01600
C313        C  0.55682745  0.70811728  0.22705659    -0.14400
C314        C  0.59328458  0.71007431  0.19458707    -0.12100
C315        C  0.57049465  0.71720270  0.15754132     0.01200
C316        C  0.51043205  0.72332703  0.15346615    -0.24300
H317        H  0.45211319  0.69375842  0.35353278     0.09200
H318        H  0.51902197  0.69224212  0.30017345     0.12700
H319        H  0.31402882  0.73161217  0.27793358     0.11500
H320        H  0.33135156  0.73826228  0.20873996     0.12700
H321        H  0.39661114  0.73742214  0.15285959     0.11700
H322        H  0.57770620  0.70271786  0.25456242     0.08800
H323        H  0.63958112  0.70548517  0.19846027     0.12000
H324        H  0.49259552  0.72956085  0.12494979     0.13900
C325        C  0.11368618  0.21923819  0.82462624    -0.01600
C326        C  0.13634848  0.22407032  0.78715554    -0.09600
C327        C  0.10031323  0.22208739  0.75468169    -0.18500
C328        C  0.03969242  0.21590753  0.75865993     0.03900
C329        C  0.01647583  0.21229595  0.79684939     0.18100
C330        C  0.05365674  0.21313352  0.82932691    -0.19900
C331        C  0.95627558  0.20850754  0.80233762    -0.21100
C332        C  0.91857241  0.20845644  0.77067214    -0.19700
C333        C  0.94021645  0.21095997  0.73264628     0.19500
C334        C  0.00126142  0.21388416  0.72614297     0.01600
C335        C  0.02134200  0.21420194  0.68732406    -0.14400
C336        C  0.98256739  0.21257613  0.65635285    -0.12100
C337        C  0.92231130  0.21098291  0.66265319     0.01200
C338        C  0.90132552  0.21025807  0.70099915    -0.24300
H339        H  0.18245320  0.22921719  0.78289308     0.09200
H340        H  0.12117355  0.22641127  0.72691860     0.12700
H341        H  0.03564961  0.21025468  0.85836520     0.11500
H342        H  0.93814760  0.20608138  0.83135662     0.12700
H343        H  0.87218085  0.20599062  0.77595666     0.11700
H344        H  0.06687239  0.21507953  0.67981609     0.08800
H345        H  0.00011865  0.21309485  0.62709705     0.12000
H346        H  0.85482544  0.20854357  0.70621994     0.13900
C347        C  0.08155771  0.21538072  0.16409329    -0.01600
C348        C  0.10282417  0.20491643  0.20075834    -0.09600
C349        C  0.06591282  0.20457085  0.23319472    -0.18500
C350        C  0.00666126  0.21570488  0.22996250     0.03900
C351        C  0.98614061  0.22764251  0.19281486     0.18100
C352        C  0.02315049  0.22657293  0.16035543    -0.19900
C353        C  0.92897442  0.24105074  0.18827093    -0.21100
C354        C  0.89156941  0.24312851  0.21998226    -0.19700
C355        C  0.90981128  0.23070754  0.25678984     0.19500
C356        C  0.96725691  0.21607625  0.26221237     0.01600
C357        C  0.98243660  0.20212967  0.29957400    -0.14400
C358        C  0.94270006  0.20340610  0.33031542    -0.12100
C359        C  0.88677572  0.21898342  0.32512104     0.01200
C360        C  0.87069675  0.23262484  0.28820266    -0.24300
H361        H  0.14795493  0.19642085  0.20424107     0.09200
H362        H  0.08526919  0.19615603  0.26048468     0.12700
H363        H  0.00678292  0.23543805  0.13210868     0.11500
H364        H  0.91328970  0.25047192  0.16005689     0.12700
H365        H  0.84779892  0.25413328  0.21558445     0.11700
H366        H  0.02445389  0.18960740  0.30586422     0.08800
H367        H  0.95625162  0.19259008  0.35852593     0.12000
H368        H  0.82732196  0.24433355  0.28374873     0.13900
C369        C  0.41692461  0.28698665  0.83704092    -0.01600
C370        C  0.44724265  0.32060451  0.82594577    -0.09600
C371        C  0.48555956  0.32003754  0.79436740    -0.18500
C372        C  0.49607431  0.28522544  0.77360416     0.03900
C373        C  0.46665859  0.25082956  0.78604583     0.18100
C374        C  0.42629710  0.25226404  0.81678508    -0.19900
C375        C  0.47874050  0.21505931  0.76836057    -0.21100
C376        C  0.51998433  0.21257620  0.73882561    -0.19700
C377        C  0.54844397  0.24605105  0.72518057     0.19500
C378        C  0.53570136  0.28307267  0.74159676     0.01600
C379        C  0.56242014  0.31633888  0.72477961    -0.14400
C380        C  0.60073897  0.31280144  0.69338166    -0.12100
C381        C  0.61492952  0.27609879  0.67859121     0.01200
C382        C  0.58892169  0.24281817  0.69469660    -0.24300
H383        H  0.44113414  0.34751892  0.84179800     0.09200
H384        H  0.50768084  0.34696385  0.78769713     0.12700
H385        H  0.40395791  0.22595159  0.82610073     0.11500
H386        H  0.45691768  0.18867622  0.77793289     0.12700
H387        H  0.52906548  0.18433573  0.72616844     0.11700
H388        H  0.55334069  0.34553078  0.73454629     0.08800
H389        H  0.61977671  0.33886746  0.68075473     0.12000
H390        H  0.59871003  0.21445230  0.68248713     0.13900
C391        C  0.57778345  0.28010907  0.33884755    -0.01600
C392        C  0.60141774  0.28736062  0.30195205    -0.09600
C393        C  0.56585844  0.28817575  0.26899750    -0.18500
C394        C  0.50532934  0.28093055  0.27189355     0.03900
C395        C  0.48213731  0.27204258  0.30927348     0.18100
C396        C  0.51806819  0.27244346  0.34222827    -0.19900
C397        C  0.42326223  0.26248965  0.31358842    -0.21100
C398        C  0.38672249  0.26146165  0.28151304    -0.19700
C399        C  0.40771327  0.27107863  0.24448329     0.19500
C400        C  0.46706302  0.28166664  0.23913639     0.01600
C401        C  0.48513370  0.29294878  0.20135231    -0.14400
C402        C  0.44613488  0.29292634  0.17019565    -0.12100
C403        C  0.38826716  0.28111215  0.17547308     0.01200
C404        C  0.36943606  0.27028306  0.21275458    -0.24300
H405        H  0.64755172  0.29300963  0.29861418     0.09200
H406        H  0.58712424  0.29398270  0.24162179     0.12700
H407        H  0.49965246  0.26598545  0.37059369     0.11500
H408        H  0.40544993  0.25537245  0.34194566     0.12700
H409        H  0.34148162  0.25351813  0.28578824     0.11700
H410        H  0.52892275  0.30233399  0.19504513     0.08800
H411        H  0.46172475  0.30140349  0.14162936     0.12000
H412        H  0.32454082  0.26152223  0.21718851     0.13900
C413        C  0.06635486  0.09368107  0.99499469    -0.01600
C414        C  0.03594376  0.08441426  0.02914326    -0.09600
C415        C  0.01109948  0.04765313  0.03436647    -0.18500
C416        C  0.01621676  0.01862429  0.00550081     0.03900
C417        C  0.04672656  0.02828270  0.97076589     0.18100
C418        C  0.07116687  0.06547567  0.96580736    -0.19900
C419        C  0.05296986  0.00071549  0.94121416    -0.21100
C420        C  0.02887223  0.96375274  0.94515673    -0.19700
C421        C  0.99818893  0.95338326  0.97883727     0.19500
C422        C  0.99195407  0.98049761  0.00970846     0.01600
C423        C  0.96145472  0.96828262  0.04335179    -0.14400
C424        C  0.93679319  0.93123645  0.04572425    -0.12100
C425        C  0.94148842  0.90499710  0.01478754     0.01200
C426        C  0.97299569  0.91614778  0.98159230    -0.24300
H427        H  0.03154180  0.10562491  0.05217232     0.09200
H428        H  0.98835128  0.04294086  0.06138544     0.12700
H429        H  0.09493659  0.07218871  0.93933363     0.11500
H430        H  0.07640652  0.00786554  0.91473305     0.12700
H431        H  0.03404553  0.94318358  0.92160189     0.11700
H432        H  0.95538364  0.98669984  0.06827207     0.08800
H433        H  0.91277565  0.92348033  0.07177388     0.12000
H434        H  0.97719575  0.89605733  0.95752937     0.13900
C435        C  0.55881878  0.59934331  0.98776487    -0.01600
C436        C  0.54178417  0.58617582  0.02471821    -0.09600
C437        C  0.51516745  0.54997884  0.02970009    -0.18500
C438        C  0.50441160  0.52543772  0.99765706     0.03900
C439        C  0.52008492  0.53934807  0.96002973     0.18100
C440        C  0.54710293  0.57590348  0.95543493    -0.19900
C441        C  0.50943438  0.51645090  0.92726967    -0.21100
C442        C  0.48433142  0.47972124  0.93109249    -0.19700
C443        C  0.46944690  0.46487387  0.96778970     0.19500
C444        C  0.47909012  0.48755284  0.00162217     0.01600
C445        C  0.46338329  0.47115462  0.03797475    -0.14400
C446        C  0.43886700  0.43404120  0.04056909    -0.12100
C447        C  0.42920444  0.41177499  0.00720397     0.01200
C448        C  0.44485065  0.42742746  0.97084656    -0.24300
H449        H  0.55020022  0.60358082  0.05026094     0.09200
H450        H  0.50403270  0.54201692  0.05910824     0.12700
H451        H  0.55970561  0.58585770  0.92665232     0.11500
H452        H  0.52093916  0.52692398  0.89847640     0.12700
H453        H  0.47687551  0.46268046  0.90515090     0.11700
H454        H  0.46942318  0.48617605  0.06505115     0.08800
H455        H  0.42720592  0.42281578  0.06903154     0.12000
H456        H  0.43731885  0.41063657  0.94473752     0.13900
loop_ 
_geom_bond_atom_site_label_1 
_geom_bond_atom_site_label_2 
_geom_bond_distance 
_geom_bond_site_symmetry_2 
_ccdc_geom_bond_type 
O1           Mg3   2.139   1_554  S
O1           Mg9   2.136       .  S
O1           C36   1.238       .  S
C2           O15   1.237       .  S
C2           O39   1.270       .  A
C2           H41   1.081       .  S
Mg3          O32   2.134       .  S
Mg3          O47   2.306       .  S
Mg3          O43   2.259       .  S
Mg3          O14   2.306       .  S
O4          Mg46   2.150       .  S
O4          Mg29   2.131       .  S
O4           C25   1.238       .  S
O5           C36   1.272       .  A
O5          Mg29   2.306       .  S
C6            O8   1.273       .  A
C6           O20   1.276       .  A
C6          C325   1.478       .  S
O7           C35   1.273   1_554  A
O7           Mg9   2.308       .  S
O8          Mg40   2.265       .  S
Mg9          O15   2.131       .  S
Mg9          O23   2.262       .  S
Mg9          O11   2.319       .  S
C10          O48   1.272       .  A
C10          O16   1.274   1_556  A
C10         C413   1.480       .  S
O11          C18   1.277       .  A
H12          C25   1.081       .  S
C13          O27   1.238       .  S
C13          O28   1.272       .  A
C13          H38   1.081       .  S
O14          C37   1.272       .  A
O15         Mg29   2.142       .  S
O16         Mg46   2.296       .  S
C17          O30   1.271       .  A
C17          O22   1.278       .  A
C17         C347   1.476       .  S
C18          O45   1.274       .  A
C18         C403   1.480       .  S
Mg19         O26   2.133       .  S
Mg19         O27   2.139       .  S
Mg19         O20   2.318       .  S
Mg19         O21   2.299       .  S
Mg19         O48   2.255       .  S
O21          C25   1.272   1_556  A
O22         Mg29   2.326       .  S
O23          C42   1.272       .  A
O24          C44   1.276       .  A
O24         Mg40   2.323       .  S
O26         Mg40   2.131       .  S
O26          C37   1.238       .  S
O27         Mg46   2.129   1_556  S
O28         Mg40   2.302       .  S
Mg29         O45   2.264       .  S
O30         Mg46   2.247       .  S
H31          C36   1.081       .  S
O32         Mg40   2.140       .  S
O32          C35   1.239       .  S
H33          C35   1.081       .  S
H34          C37   1.081       .  S
O39         Mg46   2.291       .  S
C42          O47   1.275   1_554  A
C42         C447   1.484       .  S
O43          C44   1.271       .  A
C44         C369   1.472       .  S
O49         Mg51   2.136   1_554  S
O49         Mg57   2.139       .  S
O49          C84   1.237       .  S
C50          O63   1.237       .  S
C50          O87   1.270       .  A
C50          H89   1.081       .  S
Mg51         O80   2.149       .  S
Mg51         O95   2.309       .  S
Mg51         O91   2.255       .  S
Mg51         O62   2.299       .  S
O52         Mg94   2.155       .  S
O52         Mg77   2.136       .  S
O52          C73   1.239       .  S
O53          C84   1.270       .  A
O53         Mg77   2.299       .  S
C54          O56   1.275       .  A
C54          O68   1.277       .  A
C54         C281   1.479       .  S
O55          C83   1.273   1_554  A
O55         Mg57   2.305       .  S
O56         Mg88   2.282       .  S
Mg57         O63   2.122       .  S
Mg57         O71   2.247       .  S
Mg57         O59   2.313       .  S
C58          O96   1.273       .  A
C58          O64   1.274   1_556  A
C58         C435   1.483       .  S
O59          C66   1.277       .  A
H60          C73   1.081       .  S
C61          O75   1.237       .  S
C61          O76   1.271       .  A
C61          H86   1.081       .  S
O62          C85   1.271       .  A
O63         Mg77   2.145       .  S
O64         Mg94   2.290       .  S
C65          O78   1.272       .  A
C65          O70   1.277       .  A
C65         C315   1.478       .  S
C66          O93   1.275       .  A
C66         C259   1.485       .  S
Mg67         O74   2.139       .  S
Mg67         O75   2.142       .  S
Mg67         O68   2.311       .  S
Mg67         O69   2.301       .  S
Mg67         O96   2.277       .  S
O69          C73   1.272   1_556  A
O70         Mg77   2.308       .  S
O71          C90   1.271       .  A
O72          C92   1.278       .  A
O72         Mg88   2.322       .  S
O74         Mg88   2.147       .  S
O74          C85   1.238       .  S
O75         Mg94   2.133   1_556  S
O76         Mg88   2.301       .  S
Mg77         O93   2.275       .  S
O78         Mg94   2.258       .  S
H79          C84   1.081       .  S
O80         Mg88   2.145       .  S
O80          C83   1.239       .  S
H81          C83   1.081       .  S
H82          C85   1.081       .  S
O87         Mg94   2.289       .  S
C90          O95   1.276   1_554  A
C90         C425   1.481       .  S
O91          C92   1.272       .  A
C92         C237   1.484       .  S
O97         Mg99   2.132       .  S
O97        Mg105   2.136       .  S
O97         C132   1.237       .  S
C98         O111   1.238       .  S
C98         O135   1.271       .  A
C98         H137   1.081       .  S
Mg99        O128   2.141       .  S
Mg99        O143   2.315       .  S
Mg99        O139   2.247       .  S
Mg99        O110   2.296       .  S
O100       Mg142   2.146       .  S
O100       Mg125   2.130       .  S
O100        C121   1.238       .  S
O101        C132   1.271       .  A
O101       Mg125   2.302       .  S
C102        O104   1.274       .  A
C102        O116   1.275       .  A
C102        C381   1.472       .  S
O103        C131   1.273       .  A
O103       Mg105   2.304       .  S
O104       Mg136   2.269       .  S
Mg105       O111   2.131       .  S
Mg105       O119   2.258       .  S
Mg105       O107   2.300       .  S
C106        O144   1.273       .  A
C106        O112   1.276       .  A
C106        C227   1.479       .  S
O107        C114   1.275       .  A
H108        C121   1.081       .  S
C109        O123   1.237       .  S
C109        O124   1.271       .  A
C109        H134   1.081       .  S
O110        C133   1.271       .  A
O111       Mg125   2.149       .  S
O112       Mg142   2.304       .  S
C113        O126   1.273       .  A
C113        O118   1.277       .  A
C113        C391   1.480       .  S
C114        O141   1.274       .  A
C114        C359   1.481       .  S
Mg115       O122   2.134       .  S
Mg115       O123   2.146       .  S
Mg115       O116   2.301       .  S
Mg115       O117   2.298       .  S
Mg115       O144   2.261       .  S
O117        C121   1.271       .  A
O118       Mg125   2.316       .  S
O119        C138   1.272       .  A
O120        C140   1.279       .  A
O120       Mg136   2.334       .  S
O122       Mg136   2.156       .  S
O122        C133   1.237       .  S
O123       Mg142   2.137       .  S
O124       Mg136   2.296       .  S
Mg125       O141   2.273       .  S
O126       Mg142   2.264       .  S
H127        C132   1.081       .  S
O128       Mg136   2.138       .  S
O128        C131   1.238       .  S
H129        C131   1.081       .  S
H130        C133   1.081       .  S
O135       Mg142   2.293       .  S
C138        O143   1.276       .  A
C138        C193   1.485       .  S
O139        C140   1.272       .  A
C140        C337   1.483       .  S
O145       Mg147   2.135       .  S
O145       Mg153   2.139       .  S
O145        C180   1.236       .  S
C146        O159   1.237       .  S
C146        O183   1.270       .  A
C146        H185   1.081       .  S
Mg147       O176   2.148       .  S
Mg147       O191   2.287       .  S
Mg147       O187   2.257       .  S
Mg147       O158   2.293       .  S
O148       Mg190   2.152       .  S
O148       Mg173   2.139       .  S
O148        C169   1.239       .  S
O149        C180   1.270       .  A
O149       Mg173   2.301       .  S
C150        O152   1.274       .  A
C150        O164   1.277       .  A
C150        C249   1.477       .  S
O151        C179   1.274       .  A
O151       Mg153   2.306       .  S
O152       Mg184   2.272       .  S
Mg153       O159   2.130       .  S
Mg153       O167   2.267       .  S
Mg153       O155   2.306       .  S
C154        O192   1.272       .  A
C154        O160   1.274       .  A
C154        C205   1.483       .  S
O155        C162   1.277       .  A
H156        C169   1.081       .  S
C157        O171   1.237       .  S
C157        O172   1.271       .  A
C157        H182   1.081       .  S
O158        C181   1.270       .  A
O159       Mg173   2.151       .  S
O160       Mg190   2.295       .  S
C161        O174   1.271       .  A
C161        O166   1.278       .  A
C161        C271   1.476       .  S
C162        O189   1.275       .  A
C162        C303   1.479       .  S
Mg163       O170   2.129       .  S
Mg163       O171   2.136       .  S
Mg163       O164   2.317       .  S
Mg163       O165   2.305       .  S
Mg163       O192   2.267       .  S
O165        C169   1.273       .  A
O166       Mg173   2.325       .  S
O167        C186   1.272       .  A
O168        C188   1.278       .  A
O168       Mg184   2.325       .  S
O170       Mg184   2.141       .  S
O170        C181   1.237       .  S
O171       Mg190   2.135       .  S
O172       Mg184   2.304       .  S
Mg173       O189   2.276       .  S
O174       Mg190   2.247       .  S
H175        C180   1.081       .  S
O176       Mg184   2.138       .  S
O176        C179   1.240       .  S
H177        C179   1.081       .  S
H178        C181   1.081       .  S
O183       Mg190   2.292       .  S
C186        O191   1.273       .  A
C186        C215   1.478       .  S
O187        C188   1.272       .  A
C188        C293   1.484       .  S
C193        C194   1.402       .  A
C193        C198   1.403       .  A
C194        H207   1.083       .  S
C194        C195   1.396       .  A
C195        H208   1.077       .  S
C195        C196   1.414       .  A
C196        C202   1.431   1_645  A
C196        C197   1.422       .  A
C197        C199   1.399   1_655  A
C197        C198   1.406       .  A
C198        H209   1.084       .  S
C199        H210   1.084   1_455  S
C199        C200   1.389   1_545  A
C200        H211   1.084       .  S
C200        C201   1.399       .  A
C201        C202   1.422       .  A
C201        C206   1.405       .  A
C202        C203   1.415       .  A
C203        H212   1.077       .  S
C203        C204   1.396       .  A
C204        H213   1.083       .  S
C204        C205   1.402       .  A
C205        C206   1.402       .  A
C206        H214   1.084       .  S
C215        C216   1.401       .  A
C215        C220   1.402       .  A
C216        H229   1.083       .  S
C216        C217   1.393       .  A
C217        H230   1.077       .  S
C217        C218   1.413       .  A
C218        C224   1.428       .  A
C218        C219   1.423       .  A
C219        C221   1.399       .  A
C219        C220   1.405       .  A
C220        H231   1.084       .  S
C221        H232   1.084       .  S
C221        C222   1.390       .  A
C222        H233   1.084       .  S
C222        C223   1.400       .  A
C223        C224   1.422       .  A
C223        C228   1.405       .  A
C224        C225   1.415       .  A
C225        H234   1.077       .  S
C225        C226   1.394       .  A
C226        H235   1.083       .  S
C226        C227   1.400       .  A
C227        C228   1.403       .  A
C228        H236   1.084       .  S
C237        C238   1.402       .  A
C237        C242   1.402       .  A
C238        H251   1.083   1_655  S
C238        C239   1.396   1_655  A
C239        H252   1.077       .  S
C239        C240   1.413       .  A
C240        C246   1.430       .  A
C240        C241   1.423   1_455  A
C241        C243   1.400       .  A
C241        C242   1.407       .  A
C242        H253   1.084       .  S
C243        H254   1.084       .  S
C243        C244   1.391       .  A
C244        H255   1.084       .  S
C244        C245   1.400   1_655  A
C245        C246   1.422       .  A
C245        C250   1.406       .  A
C246        C247   1.416       .  A
C247        H256   1.077       .  S
C247        C248   1.398       .  A
C248        H257   1.083       .  S
C248        C249   1.399       .  A
C249        C250   1.401       .  A
C250        H258   1.085       .  S
C259        C260   1.401       .  A
C259        C264   1.404       .  A
C260        H273   1.083       .  S
C260        C261   1.397       .  A
C261        H274   1.077       .  S
C261        C262   1.415       .  A
C262        C268   1.430       .  A
C262        C263   1.421       .  A
C263        C265   1.401   1_655  A
C263        C264   1.407       .  A
C264        H275   1.084       .  S
C265        H276   1.084       .  S
C265        C266   1.391       .  A
C266        H277   1.084       .  S
C266        C267   1.399       .  A
C267        C268   1.424   1_455  A
C267        C272   1.408       .  A
C268        C269   1.414       .  A
C269        H278   1.077       .  S
C269        C270   1.395   1_655  A
C270        H279   1.084   1_455  S
C270        C271   1.399       .  A
C271        C272   1.400       .  A
C272        H280   1.085       .  S
C281        C282   1.399       .  A
C281        C286   1.402       .  A
C282        H295   1.083       .  S
C282        C283   1.399       .  A
C283        H296   1.077       .  S
C283        C284   1.417       .  A
C284        C290   1.431       .  A
C284        C285   1.422       .  A
C285        C287   1.400       .  A
C285        C286   1.405       .  A
C286        H297   1.084       .  S
C287        H298   1.084       .  S
C287        C288   1.391       .  A
C288        H299   1.084       .  S
C288        C289   1.399       .  A
C289        C290   1.423       .  A
C289        C294   1.408       .  A
C290        C291   1.413       .  A
C291        H300   1.077       .  S
C291        C292   1.397       .  A
C292        H301   1.083       .  S
C292        C293   1.403       .  A
C293        C294   1.402       .  A
C294        H302   1.084       .  S
C303        C304   1.401       .  A
C303        C308   1.402       .  A
C304        H317   1.083       .  S
C304        C305   1.395       .  A
C305        H318   1.077       .  S
C305        C306   1.414       .  A
C306        C312   1.429       .  A
C306        C307   1.423       .  A
C307        C309   1.400       .  A
C307        C308   1.406       .  A
C308        H319   1.085       .  S
C309        H320   1.084       .  S
C309        C310   1.391       .  A
C310        H321   1.084       .  S
C310        C311   1.400       .  A
C311        C312   1.422       .  A
C311        C316   1.405       .  A
C312        C313   1.415       .  A
C313        H322   1.077       .  S
C313        C314   1.396       .  A
C314        H323   1.083       .  S
C314        C315   1.399       .  A
C315        C316   1.403       .  A
C316        H324   1.084       .  S
C325        C326   1.398       .  A
C325        C330   1.404       .  A
C326        H339   1.083       .  S
C326        C327   1.394       .  A
C327        H340   1.077       .  S
C327        C328   1.415       .  A
C328        C334   1.429       .  A
C328        C329   1.422       .  A
C329        C331   1.401   1_455  A
C329        C330   1.409       .  A
C330        H341   1.084       .  S
C331        H342   1.084       .  S
C331        C332   1.394       .  A
C332        H343   1.084       .  S
C332        C333   1.401       .  A
C333        C334   1.423   1_655  A
C333        C338   1.411       .  A
C334        C335   1.412       .  A
C335        H344   1.077       .  S
C335        C336   1.392   1_455  A
C336        H345   1.083   1_655  S
C336        C337   1.402       .  A
C337        C338   1.404       .  A
C338        H346   1.084       .  S
C347        C348   1.399       .  A
C347        C352   1.401       .  A
C348        H361   1.083       .  S
C348        C349   1.400       .  A
C349        H362   1.078       .  S
C349        C350   1.418       .  A
C350        C356   1.430   1_455  A
C350        C351   1.421   1_455  A
C351        C353   1.400       .  A
C351        C352   1.402   1_655  A
C352        H363   1.085       .  S
C353        H364   1.084       .  S
C353        C354   1.389       .  A
C354        H365   1.084       .  S
C354        C355   1.399       .  A
C355        C356   1.423       .  A
C355        C360   1.406       .  A
C356        C357   1.413       .  A
C357        H366   1.078   1_655  S
C357        C358   1.396       .  A
C358        H367   1.083       .  S
C358        C359   1.402       .  A
C359        C360   1.401       .  A
C360        H368   1.085       .  S
C369        C370   1.398       .  A
C369        C374   1.399       .  A
C370        H383   1.084       .  S
C370        C371   1.397       .  A
C371        H384   1.078       .  S
C371        C372   1.415       .  A
C372        C378   1.429       .  A
C372        C373   1.423       .  A
C373        C375   1.400       .  A
C373        C374   1.406       .  A
C374        H385   1.085       .  S
C375        H386   1.084       .  S
C375        C376   1.390       .  A
C376        H387   1.084       .  S
C376        C377   1.400       .  A
C377        C378   1.422       .  A
C377        C382   1.405       .  A
C378        C379   1.416       .  A
C379        H388   1.078       .  S
C379        C380   1.397       .  A
C380        H389   1.084       .  S
C380        C381   1.398       .  A
C381        C382   1.399       .  A
C382        H390   1.085       .  S
C391        C392   1.400       .  A
C391        C396   1.401       .  A
C392        H405   1.083       .  S
C392        C393   1.399       .  A
C393        H406   1.078       .  S
C393        C394   1.416       .  A
C394        C400   1.431       .  A
C394        C395   1.422       .  A
C395        C397   1.399       .  A
C395        C396   1.404       .  A
C396        H407   1.084       .  S
C397        H408   1.084       .  S
C397        C398   1.389       .  A
C398        H409   1.084       .  S
C398        C399   1.399       .  A
C399        C400   1.423       .  A
C399        C404   1.404       .  A
C400        C401   1.415       .  A
C401        H410   1.078       .  S
C401        C402   1.399       .  A
C402        H411   1.083       .  S
C402        C403   1.401       .  A
C403        C404   1.401       .  A
C404        H412   1.085       .  S
C413        C414   1.400   1_556  A
C413        C418   1.403       .  A
C414        H427   1.083       .  S
C414        C415   1.395       .  A
C415        H428   1.077   1_455  S
C415        C416   1.415       .  A
C416        C422   1.428   1_445  A
C416        C417   1.421   1_554  A
C417        C419   1.399       .  A
C417        C418   1.403       .  A
C418        H429   1.084       .  S
C419        H430   1.084       .  S
C419        C420   1.389   1_545  A
C420        H431   1.084       .  S
C420        C421   1.399   1_455  A
C421        C422   1.423   1_556  A
C421        C426   1.405       .  A
C422        C423   1.413       .  A
C423        H432   1.077       .  S
C423        C424   1.393       .  A
C424        H433   1.083       .  S
C424        C425   1.402       .  A
C425        C426   1.402   1_554  A
C426        H434   1.084       .  S
C435        C436   1.402   1_556  A
C435        C440   1.403       .  A
C436        H449   1.083       .  S
C436        C437   1.394       .  A
C437        H450   1.077       .  S
C437        C438   1.413   1_554  A
C438        C444   1.430   1_556  A
C438        C439   1.423       .  A
C439        C441   1.400       .  A
C439        C440   1.407       .  A
C440        H451   1.084       .  S
C441        H452   1.084       .  S
C441        C442   1.391       .  A
C442        H453   1.084       .  S
C442        C443   1.400       .  A
C443        C444   1.422   1_556  A
C443        C448   1.407       .  A
C444        C445   1.414       .  A
C445        H454   1.077       .  S
C445        C446   1.395       .  A
C446        H455   1.083       .  S
C446        C447   1.401       .  A
C447        C448   1.404   1_554  A
C448        H456   1.084       .  S
