geometry optimzed in LAMMPS
_audit_creation_date              2020-12-01 
_audit_creation_method            'lammps2cif' 
_symmetry_space_group_name_H-M    'P1' 
_symmetry_Int_Tables_number       1 
_symmetry_cell_setting            triclinic 
loop_ 
_symmetry_equiv_pos_as_xyz 
  x,y,z 
_cell_length_a                    38.62962601 
_cell_length_b                    38.62834877613001 
_cell_length_c                    38.62887160233685 
_cell_angle_alpha                 89.96500163042268 
_cell_angle_beta                  89.9871812855127 
_cell_angle_gamma                 89.98836740638072 
loop_ 
_atom_site_label 
_atom_site_type_symbol 
_atom_site_fract_x 
_atom_site_fract_y 
_atom_site_fract_z 
_atom_site_charge 
O1          O  0.40052663  0.99900819  0.19181058    -0.73600
O2          O  0.44355414  0.99840324  0.15117628    -0.52500
C3          C  0.41159689  0.99888685  0.16039299     0.80100
O4          O  0.49835742  0.09523674  0.30823484    -0.58200
O5          O  0.49846093  0.05193488  0.34859226    -0.51300
C6          C  0.49858931  0.08396119  0.33958354     0.72100
O7          O  0.49679670  0.09553372  0.19156951    -0.72800
O8          O  0.99675062  0.05230930  0.15116174    -0.53300
C9          C  0.49667873  0.08430816  0.16021843     0.78100
O10         O  0.40112934  0.99660626  0.30860810    -0.57900
O11         O  0.44460663  0.49742720  0.34875038    -0.51000
C12         C  0.41255762  0.99677890  0.33989273     0.74700
Zr13       Zr  0.42506249  0.99766419  0.25009717     2.54700
O14         O  0.38122157  0.04293047  0.25117275    -0.78500
O15         O  0.38219740  0.45145102  0.25025162    -0.91900
Zr16       Zr  0.49701591  0.07101926  0.24983343     2.64700
O17         O  0.44975740  0.11278446  0.24977955    -0.96900
O18         O  0.04121526  0.11590119  0.24968000    -0.78900
O19         O  0.46035266  0.03492441  0.21633770    -0.82300
O20         O  0.46066790  0.03482608  0.28351082    -2.17000
O21         O  0.99755837  0.40127566  0.30797560    -0.65700
O22         O  0.49811155  0.44448910  0.34837667    -0.50200
C23         C  0.99767944  0.41250230  0.33931776     0.73100
O24         O  0.09443908  0.49757341  0.19077560    -0.58600
O25         O  0.05096018  0.99825673  0.15063347    -0.50600
C26         C  0.08301456  0.49766575  0.15948318     0.74900
O27         O  0.09521341  0.49939181  0.30746925    -0.70000
O28         O  0.05213611  0.49889417  0.34804779    -0.48700
C29         C  0.08409694  0.49928316  0.33886343     0.76300
O30         O  0.99952440  0.40135881  0.19133079    -0.65300
O31         O  0.99854837  0.44468041  0.15099221    -0.52500
C32         C  0.99936425  0.41266663  0.15999792     0.75900
Zr33       Zr  0.99847375  0.42563199  0.24965420     2.77500
O34         O  0.04477293  0.38283241  0.24946240    -0.96100
O35         O  0.45331075  0.38170186  0.24915779    -0.76900
Zr36       Zr  0.07048390  0.49890134  0.24930840     2.70100
O37         O  0.11424319  0.45356498  0.24959047    -0.78100
O38         O  0.11328891  0.04515277  0.24830703    -0.97200
Zr39       Zr  0.99742463  0.99842257  0.18331692     2.21500
Zr40       Zr  0.49817946  0.49825937  0.31610454     2.11100
O41         O  0.03528229  0.46161018  0.28308881    -2.45900
O42         O  0.03478654  0.46183413  0.21588825    -0.77900
O43         O  0.46145273  0.46110918  0.28344835    -0.70100
O44         O  0.03416322  0.03559112  0.21610290    -2.31100
O45         O  0.46100454  0.46108936  0.21633849    -2.27300
O46         O  0.03454001  0.03551362  0.28310386    -0.71900
H47         H  0.44644797  0.04880002  0.29858991     0.80100
H48         H  0.04821152  0.04986230  0.20112644     0.81200
H49         H  0.04964692  0.44754320  0.29797130     0.83400
H50         H  0.44692420  0.44679601  0.20143549     0.81000
H51         H  0.06251848  0.10393842  0.24194720     0.44100
H52         H  0.10756961  0.05973129  0.26859541     0.43100
H53         H  0.10443353  0.43508333  0.23479752     0.42700
H54         H  0.05917250  0.38855161  0.26986958     0.40700
H55         H  0.43392186  0.39226600  0.26217759     0.43800
H56         H  0.38635729  0.43850481  0.22853371     0.38600
H57         H  0.39148031  0.06213806  0.23764140     0.44700
H58         H  0.43563873  0.10684614  0.27033327     0.41100
H59         H  0.03322894  0.36080811  0.25569062     0.46000
H60         H  0.35984158  0.46340988  0.24646240     0.44800
H61         H  0.46084746  0.13508638  0.25580667     0.44900
H62         H  0.13532737  0.03368070  0.25462385     0.45200
O63         O  0.49704085  0.19016950  0.09681992    -0.73600
O64         O  0.99768508  0.14975076  0.05361583    -0.52500
C65         C  0.49716905  0.15881662  0.08560502     0.80100
O66         O  0.40117655  0.30719525  0.99922363    -0.58200
O67         O  0.44455719  0.34743401  0.99944174    -0.51300
C68         C  0.41252126  0.33850750  0.99914357     0.72100
O69         O  0.40053072  0.19054377  0.00070614    -0.72800
O70         O  0.44364983  0.15000510  0.00037643    -0.53300
C71         C  0.41166663  0.15915406  0.00063859     0.78100
O72         O  0.49978221  0.30681219  0.09679877    -0.57900
O73         O  0.49912634  0.34715149  0.05347205    -0.51000
C74         C  0.49974039  0.33814684  0.08549326     0.74700
Zr75       Zr  0.49851790  0.24850738  0.07247442     2.54700
O76         O  0.45328572  0.24964424  0.11635332    -0.78500
O77         O  0.04486533  0.24838531  0.11516470    -0.91900
Zr78       Zr  0.42521217  0.24872095  0.00051379     2.64700
O79         O  0.38324282  0.24862625  0.04757697    -0.96900
O80         O  0.38015601  0.24880359  0.45646044    -0.78900
O81         O  0.46120789  0.21497026  0.03706647    -0.82300
O82         O  0.46141944  0.28218547  0.03701988    -2.17000
O83         O  0.09519729  0.30631629  0.50032315    -0.65700
O84         O  0.05193125  0.34701422  0.00000307    -0.50200
C85         C  0.08409432  0.33771860  0.50033568     0.73100
O86         O  0.99852611  0.19000898  0.40273027    -0.58600
O87         O  0.99765050  0.14967921  0.44605852    -0.50600
C88         C  0.99829593  0.15866119  0.41403283     0.74900
O89         O  0.99713942  0.30661703  0.40258334    -0.70000
O90         O  0.49772673  0.34699769  0.44581982    -0.48700
C91         C  0.99732128  0.33795141  0.41382479     0.76300
O92         O  0.09456836  0.18962538  0.99808442    -0.65300
O93         O  0.05114763  0.14941324  0.99859553    -0.52500
C94         C  0.08311467  0.15822961  0.49809140     0.74700
Zr95       Zr  0.07064269  0.24815964  0.99912704     2.77500
O96         O  0.11348550  0.24788003  0.45283131    -0.96100
O97         O  0.11477252  0.24754148  0.04410696    -0.76900
Zr98       Zr  0.99740294  0.24837417  0.42708418     2.70100
O99         O  0.04269318  0.24875945  0.38328691    -0.78100
O100        O  0.45085827  0.24779911  0.38459086    -0.97200
Zr101      Zr  0.99762129  0.18203643  0.99982749     2.21500
Zr102      Zr  0.49815431  0.31481965  0.99970369     2.11100
O103        O  0.03480367  0.28181429  0.46246498    -2.45900
O104        O  0.03435837  0.21461847  0.46264014    -0.77900
O105        O  0.03522708  0.28187997  0.03628061    -0.70100
O106        O  0.46052449  0.21516875  0.46318863    -2.31100
O107        O  0.03501537  0.21479510  0.03640537    -2.27300
O108        O  0.46092923  0.28219361  0.46314844    -0.71900
H109        H  0.44747172  0.29724423  0.05129049     0.80100
H110        H  0.44620057  0.20033050  0.44906811     0.81200
H111        H  0.04892931  0.29670797  0.44816922     0.83400
H112        H  0.04924960  0.19977944  0.05044521     0.81000
H113        H  0.39215273  0.24167034  0.43497214     0.44100
H114        H  0.43627134  0.26799114  0.39064486     0.43100
H115        H  0.06060208  0.23285846  0.39244038     0.42700
H116        H  0.10807796  0.26858575  0.43871542     0.40700
H117        H  0.10398484  0.25980853  0.06385573     0.43800
H118        H  0.05796306  0.22682251  0.11065587     0.38600
H119        H  0.43407028  0.23611973  0.10613348     0.44700
H120        H  0.38964922  0.26866231  0.06219905     0.41100
H121        H  0.13559623  0.25359357  0.46446260     0.46000
H122        H  0.03301394  0.24418599  0.13750529     0.44800
H123        H  0.36116278  0.25552533  0.03653512     0.44900
H124        H  0.46215112  0.25440420  0.36254258     0.45200
O125        O  0.30566900  0.09574314  0.00033619    -0.73600
O126        O  0.34615997  0.05283431  0.50009923    -0.52500
C127        C  0.33706371  0.08460912  0.00039512     0.80100
O128        O  0.18880767  0.49762936  0.09624333    -0.58200
O129        O  0.14865561  0.99763130  0.05278641    -0.51300
C130        C  0.15751428  0.99739965  0.08484147     0.72100
O131        O  0.30547133  0.49914980  0.09703947    -0.72800
O132        O  0.34609810  0.49929040  0.05399481    -0.53300
C133        C  0.33688379  0.99929872  0.08595935     0.78100
O134        O  0.18902627  0.09523550  0.99745409    -0.57900
O135        O  0.14885908  0.05178104  0.99833268    -0.51000
C136        C  0.15773731  0.08382622  0.99759639     0.74700
Zr137      Zr  0.24744365  0.07113055  0.99889424     2.54700
O138        O  0.24615510  0.11488183  0.04420716    -0.78500
O139        O  0.24738522  0.11387895  0.45247402    -0.91900
Zr140      Zr  0.24731122  0.49909069  0.07226333     2.64700
O141        O  0.24709184  0.04623592  0.11410830    -0.96900
O142        O  0.24724179  0.45508175  0.11734452    -0.78900
O143        O  0.28097970  0.03575298  0.03629066    -0.82300
O144        O  0.21383564  0.03553831  0.03595577    -2.17000
O145        O  0.18996167  0.99895537  0.40234619    -0.65700
O146        O  0.14938269  0.99824886  0.44541675    -0.50200
C147        C  0.15856574  0.49880762  0.41346094     0.73100
O148        O  0.30654488  0.40161106  0.99900977    -0.58600
O149        O  0.34674637  0.44502915  0.99994535    -0.50600
C150        C  0.33811784  0.41328686  0.49930606     0.74900
O151        O  0.18981634  0.40116196  0.00051379    -0.70000
O152        O  0.14929311  0.44429153  0.99986688    -0.48700
C153        C  0.15865155  0.41221209  0.50039076     0.76300
O154        O  0.30671736  0.99698324  0.40297922    -0.65300
O155        O  0.34685822  0.49791686  0.44645007    -0.52500
C156        C  0.33800050  0.49716798  0.41440500     0.74700
Zr157      Zr  0.24820456  0.99788955  0.42690515     2.77500
O158        O  0.24855651  0.45190954  0.38379279    -0.96100
O159        O  0.24866018  0.04319245  0.38308650    -0.76900
Zr160      Zr  0.24806956  0.42570209  0.00015806     2.70100
O161        O  0.24805573  0.38188552  0.45500718    -0.78100
O162        O  0.24882325  0.38300774  0.04654933    -0.97200
Zr163      Zr  0.31418259  0.49867474  0.99998145     2.21500
Zr164      Zr  0.18138588  0.99812181  0.99924955     2.11100
O165        O  0.21465673  0.46101035  0.46277168    -2.45900
O166        O  0.28179973  0.46152661  0.46324780    -0.77900
O167        O  0.21420777  0.03483828  0.46224422    -0.70100
O168        O  0.28117570  0.46190449  0.03700461    -2.31100
O169        O  0.28137207  0.03531047  0.46249997    -2.27300
O170        O  0.21414001  0.46165023  0.03663222    -0.71900
H171        H  0.19869418  0.04975882  0.04987465     0.80100
H172        H  0.29603828  0.44782109  0.05133411     0.81200
H173        H  0.19982782  0.44666061  0.44864637     0.83400
H174        H  0.29633346  0.04940521  0.44827342     0.81000
H175        H  0.25377888  0.43346841  0.10524313     0.44100
H176        H  0.22871830  0.38904992  0.06126086     0.43100
H177        H  0.26235138  0.39192917  0.43624257     0.42700
H178        H  0.22818832  0.43740797  0.38942346     0.40700
H179        H  0.23546043  0.06246579  0.39363455     0.43800
H180        H  0.26909206  0.10958733  0.43953858     0.38600
H181        H  0.25953642  0.10455588  0.06348085     0.44700
H182        H  0.22629659  0.06009005  0.10839966     0.41100
H183        H  0.24230159  0.46360000  0.36184814     0.46000
H184        H  0.25124486  0.13627471  0.46431306     0.44800
H185        H  0.24140830  0.03499495  0.13644008     0.44900
H186        H  0.24211316  0.36102891  0.03520974     0.45200
C187        C  0.36503604  0.38766800  0.99895104    -0.11600
C188        C  0.38715121  0.36563680  0.99888841    -0.13200
C189        C  0.36404201  0.11013414  0.00066153    -0.11600
C190        C  0.38613421  0.13218110  0.00072049    -0.13200
C191        C  0.13170680  0.38669229  0.50059810    -0.11600
C192        C  0.10963240  0.36464963  0.50059953    -0.13200
C193        C  0.10836805  0.13102564  0.49747895    -0.11600
C194        C  0.13056177  0.10911809  0.99721549    -0.13200
C195        C  0.38726963  0.99649274  0.36707683    -0.11600
C196        C  0.36519174  0.49665017  0.38912874    -0.13200
C197        C  0.10960866  0.49937830  0.36582375    -0.11600
C198        C  0.13162611  0.49919916  0.38792678    -0.13200
C199        C  0.13033289  0.99709344  0.11016110    -0.11600
C200        C  0.10829143  0.49721021  0.13226570    -0.13200
C201        C  0.36384286  0.99932230  0.11150369    -0.11600
C202        C  0.38599963  0.99919538  0.13348422    -0.13200
C203        C  0.99866957  0.13152758  0.38866286    -0.11600
C204        C  0.49879548  0.10939639  0.36665348    -0.13200
C205        C  0.99726067  0.36499275  0.38840001    -0.11600
C206        C  0.99739595  0.38706404  0.36634601    -0.13200
C207        C  0.50011709  0.36522343  0.11087566    -0.11600
C208        C  0.99996415  0.38728986  0.13292257    -0.13200
C209        C  0.49665616  0.10974770  0.13316500    -0.11600
C210        C  0.49681923  0.13178773  0.11106565    -0.13200
O211        O  0.40055306  0.99899784  0.69182365    -0.73600
O212        O  0.44359699  0.99861593  0.65120315    -0.52500
C213        C  0.41163923  0.99901895  0.66040918     0.80100
O214        O  0.49836950  0.09528151  0.80824921    -0.58200
O215        O  0.49848059  0.05196178  0.84858949    -0.51300
C216        C  0.49861366  0.08399295  0.83959101     0.72100
O217        O  0.49677957  0.09559822  0.69164161    -0.72800
O218        O  0.99678056  0.05237563  0.65123227    -0.53300
C219        C  0.49665501  0.08437314  0.66028724     0.78100
O220        O  0.40114492  0.99646077  0.80862416    -0.57900
O221        O  0.44460633  0.49739196  0.84878036    -0.51000
C222        C  0.41256442  0.99666855  0.83991122     0.74700
Zr223      Zr  0.42507994  0.99765008  0.75012078     2.54700
O224        O  0.38132900  0.04299612  0.75125536    -0.78500
O225        O  0.38211755  0.45152947  0.75024853    -0.91900
Zr226      Zr  0.49701406  0.07101033  0.74988400     2.64700
O227        O  0.44961491  0.11261052  0.74975478    -0.96900
O228        O  0.04115665  0.11594100  0.74981026    -0.78900
O229        O  0.46037562  0.03491529  0.71638098    -0.82300
O230        O  0.46066804  0.03480645  0.78356319    -2.17000
O231        O  0.99747008  0.40124912  0.80798022    -0.65700
O232        O  0.49812112  0.44445003  0.84839710    -0.50200
C233        C  0.99762226  0.41246616  0.83932901     0.73100
O234        O  0.09443128  0.49770514  0.69076934    -0.58600
O235        O  0.05096901  0.99832969  0.65061150    -0.50600
C236        C  0.08302112  0.49778270  0.65947027     0.74900
O237        O  0.09513774  0.49932730  0.80750474    -0.70000
O238        O  0.05209461  0.49886916  0.84812543    -0.48700
C239        C  0.08404482  0.49922685  0.83890817     0.76300
O240        O  0.99954642  0.40141017  0.69129184    -0.65300
O241        O  0.99852184  0.44473781  0.65095792    -0.52500
C242        C  0.99936436  0.41272082  0.65995718     0.75900
Zr243      Zr  0.99847357  0.42562603  0.74965234     2.77500
O244        O  0.04481448  0.38287592  0.74957433    -0.96100
O245        O  0.45331858  0.38168684  0.74905402    -0.76900
Zr246      Zr  0.07046939  0.49888449  0.74931433     2.70100
O247        O  0.11408925  0.45341288  0.74959000    -0.78100
O248        O  0.11335691  0.04505421  0.74821621    -0.97200
Zr249      Zr  0.99745414  0.99845866  0.68332994     2.21500
Zr250      Zr  0.49817559  0.49824000  0.81614717     2.11100
O251        O  0.03526245  0.46160476  0.78310118    -2.45900
O252        O  0.03478929  0.46182714  0.71587588    -0.77900
O253        O  0.46146228  0.46109045  0.78346850    -0.70100
O254        O  0.03417368  0.03561638  0.71613381    -2.31100
O255        O  0.46103266  0.46111206  0.71634153    -2.27300
O256        O  0.03453945  0.03548517  0.78314226    -0.71900
H257        H  0.44644335  0.04876937  0.79864841     0.80100
H258        H  0.04822223  0.04990310  0.70117204     0.81200
H259        H  0.04962387  0.44753196  0.79798107     0.83400
H260        H  0.44695104  0.44683001  0.70142987     0.81000
H261        H  0.06254571  0.10393809  0.74238296     0.44100
H262        H  0.10768306  0.05966814  0.76849106     0.43100
H263        H  0.10441683  0.43514312  0.73444712     0.42700
H264        H  0.05928911  0.38875458  0.76988278     0.40700
H265        H  0.43365400  0.39250869  0.76143265     0.43800
H266        H  0.38624792  0.43858895  0.72852173     0.38600
H267        H  0.39127582  0.06188341  0.73705591     0.44700
H268        H  0.43540663  0.10654020  0.77020753     0.41100
H269        H  0.03331865  0.36088505  0.75600613     0.46000
H270        H  0.35978759  0.46353999  0.74646982     0.44800
H271        H  0.46059476  0.13492606  0.75592930     0.44900
H272        H  0.13538081  0.03354964  0.75452256     0.45200
O273        O  0.49695630  0.19013012  0.59674134    -0.73600
O274        O  0.99738215  0.14969228  0.55355449    -0.52500
C275        C  0.49694837  0.15877045  0.58554351     0.80100
O276        O  0.40127264  0.30741415  0.49917574    -0.58200
O277        O  0.44474079  0.34756014  0.49949227    -0.51300
C278        C  0.41268552  0.33870561  0.49915183     0.72100
O279        O  0.40045603  0.19074785  0.50063890    -0.72800
O280        O  0.44351424  0.15013847  0.50037854    -0.53300
C281        C  0.41154805  0.15934131  0.50061204     0.78100
O282        O  0.49992588  0.30682060  0.59676039    -0.57900
O283        O  0.49919893  0.34717420  0.55344612    -0.51000
C284        C  0.49984687  0.33816316  0.58546401     0.74700
Zr285      Zr  0.49853687  0.24849608  0.57244431     2.54700
O286        O  0.45334919  0.24953734  0.61636851    -0.78500
O287        O  0.04491403  0.24834512  0.61509746    -0.91900
Zr288      Zr  0.42522548  0.24888715  0.50046518     2.64700
O289        O  0.38341952  0.24875399  0.54767263    -0.96900
O290        O  0.38020321  0.24857432  0.95644960    -0.78900
O291        O  0.46117524  0.21506750  0.53699810    -0.82300
O292        O  0.46149779  0.28225081  0.53699179    -2.17000
O293        O  0.09505226  0.30647670  0.00021594    -0.65700
O294        O  0.05214041  0.34692165  0.49997403    -0.50200
C295        C  0.08389656  0.33785947  0.00028713     0.73100
O296        O  0.99854001  0.18998563  0.90276726    -0.58600
O297        O  0.99776822  0.14965973  0.94609762    -0.50600
C298        C  0.99836392  0.15864243  0.91407226     0.74900
O299        O  0.99695112  0.30660152  0.90263548    -0.70000
O300        O  0.49759235  0.34699729  0.94585732    -0.48700
C301        C  0.99714759  0.33794025  0.91386645     0.76300
O302        O  0.09456124  0.18951041  0.49811068    -0.65300
O303        O  0.05106635  0.14938136  0.49871506    -0.52500
C304        C  0.08317808  0.15832178  0.99800501     0.74700
Zr305      Zr  0.07067308  0.24804709  0.49913482     2.77500
O306        O  0.11344774  0.24808779  0.95281333    -0.96100
O307        O  0.11489077  0.24734401  0.54403381    -0.76900
Zr308      Zr  0.99737711  0.24834220  0.92710152     2.70100
O309        O  0.04260729  0.24863763  0.88323306    -0.78100
O310        O  0.45088905  0.24754468  0.88456358    -0.97200
Zr311      Zr  0.99754442  0.18204830  0.49979818     2.21500
Zr312      Zr  0.49827868  0.31484221  0.49968619     2.11100
O313        O  0.03473023  0.28186834  0.96245165    -2.45900
O314        O  0.03437309  0.21466496  0.96266876    -0.77900
O315        O  0.03528688  0.28182390  0.53626221    -0.70100
O316        O  0.46055799  0.21508466  0.96321885    -2.31100
O317        O  0.03499736  0.21471479  0.53640496    -2.27300
O318        O  0.46085926  0.28207697  0.96319068    -0.71900
H319        H  0.44757473  0.29732465  0.55126860     0.80100
H320        H  0.44626302  0.20021620  0.94910721     0.81200
H321        H  0.04882814  0.29678224  0.94814712     0.83400
H322        H  0.04919827  0.19967183  0.55045167     0.81000
H323        H  0.39188212  0.23995992  0.93533204     0.44100
H324        H  0.43599597  0.26744241  0.89083931     0.43100
H325        H  0.06070626  0.23306283  0.89257188     0.42700
H326        H  0.10821833  0.26897839  0.93890310     0.40700
H327        H  0.10389954  0.25896245  0.56405991     0.43800
H328        H  0.05781097  0.22662235  0.61078186     0.38600
H329        H  0.43388652  0.23658410  0.60588022     0.44700
H330        H  0.38957389  0.26906048  0.56202759     0.41100
H331        H  0.13560667  0.25349594  0.96449830     0.46000
H332        H  0.03303965  0.24446258  0.63748261     0.44800
H333        H  0.36120319  0.25518629  0.53662437     0.44900
H334        H  0.46209885  0.25456778  0.86260189     0.45200
O335        O  0.30555899  0.09590260  0.50033036    -0.73600
O336        O  0.34622549  0.05263035  0.00009268    -0.52500
C337        C  0.33696277  0.08480032  0.50039248     0.80100
O338        O  0.18883457  0.49762681  0.59624291    -0.58200
O339        O  0.14868107  0.99756715  0.55278685    -0.51300
C340        C  0.15753946  0.99736934  0.58484054     0.72100
O341        O  0.30556862  0.49940678  0.59702983    -0.72800
O342        O  0.34617227  0.49951301  0.55396400    -0.53300
C343        C  0.33697646  0.99955990  0.58593216     0.78100
O344        O  0.18889799  0.09516608  0.49742580    -0.57900
O345        O  0.14880763  0.05164169  0.49840984    -0.51000
C346        C  0.15763019  0.08370040  0.49762746     0.74700
Zr347      Zr  0.24737391  0.07120945  0.49890162     2.54700
O348        O  0.24607426  0.11501356  0.54417296    -0.78500
O349        O  0.24738573  0.11387221  0.95254268    -0.91900
Zr350      Zr  0.24737140  0.49917784  0.57231607     2.64700
O351        O  0.24719270  0.04636264  0.61412084    -0.96900
O352        O  0.24724567  0.45520244  0.61744299    -0.78900
O353        O  0.28095442  0.03588475  0.53630688    -0.82300
O354        O  0.21384321  0.03555969  0.53598699    -2.17000
O355        O  0.18995042  0.99885039  0.90234286    -0.65700
O356        O  0.14933568  0.99836037  0.94538574    -0.50200
C357        C  0.15854740  0.49880164  0.91343960     0.73100
O358        O  0.30682395  0.40187013  0.49902720    -0.58600
O359        O  0.34696380  0.44533972  0.49997643    -0.50600
C360        C  0.33785290  0.41298701  0.99928079     0.74900
O361        O  0.19004839  0.40110513  0.50055383    -0.70000
O362        O  0.14945685  0.44416537  0.49991945    -0.48700
C363        C  0.15843913  0.41232594  0.00034920     0.76300
O364        O  0.30675070  0.99681345  0.90302288    -0.65300
O365        O  0.34690413  0.49777463  0.94648102    -0.52500
C366        C  0.33803795  0.49700456  0.91444024     0.74700
Zr367      Zr  0.24820157  0.99782627  0.92688384     2.77500
O368        O  0.24857658  0.45196731  0.88364161    -0.96100
O369        O  0.24868487  0.04311436  0.88304725    -0.76900
Zr370      Zr  0.24825270  0.42576302  0.50019737     2.70100
O371        O  0.24799022  0.38176744  0.95502048    -0.78100
O372        O  0.24909999  0.38287177  0.54640902    -0.97200
Zr373      Zr  0.31419865  0.49884511  0.49999746     2.21500
Zr374      Zr  0.18145015  0.99806360  0.49928887     2.11100
O375        O  0.21455269  0.46101456  0.96273221    -2.45900
O376        O  0.28172046  0.46140309  0.96322965    -0.77900
O377        O  0.21423707  0.03482430  0.96221177    -0.70100
O378        O  0.28128796  0.46201939  0.53706915    -2.31100
O379        O  0.28141094  0.03520029  0.96248537    -2.27300
O380        O  0.21428495  0.46166814  0.53667813    -0.71900
H381        H  0.19868393  0.04976097  0.54990419     0.80100
H382        H  0.29618604  0.44796582  0.55140329     0.81200
H383        H  0.19971086  0.44668630  0.94859966     0.83400
H384        H  0.29639509  0.04928001  0.94826282     0.81000
H385        H  0.25395603  0.43360816  0.60540054     0.44100
H386        H  0.22904482  0.38887053  0.56120612     0.43100
H387        H  0.26145058  0.39222347  0.93586665     0.42700
H388        H  0.22828243  0.43737500  0.88930453     0.40700
H389        H  0.23528197  0.06230795  0.89348347     0.43800
H390        H  0.26866891  0.10907060  0.93909427     0.38600
H391        H  0.25889083  0.10444639  0.56369860     0.44700
H392        H  0.22601963  0.05981724  0.60886355     0.41100
H393        H  0.24220023  0.46369409  0.86175097     0.46000
H394        H  0.25207330  0.13614426  0.96431550     0.44800
H395        H  0.24222014  0.03504293  0.63658188     0.44900
H396        H  0.24233609  0.36094634  0.53499687     0.45200
C397        C  0.36532201  0.38798880  0.49897804    -0.11600
C398        C  0.38738409  0.36590302  0.49890930    -0.13200
C399        C  0.36391144  0.11034646  0.50065371    -0.11600
C400        C  0.38598980  0.13240172  0.50070488    -0.13200
C401        C  0.13146011  0.38685704  0.00055631    -0.11600
C402        C  0.10938689  0.36482184  0.00054473    -0.13200
C403        C  0.10848224  0.13116552  0.99738457    -0.11600
C404        C  0.13042077  0.10895257  0.49727895    -0.13200
C405        C  0.38727744  0.99634006  0.86708891    -0.11600
C406        C  0.36521741  0.49647983  0.88915547    -0.13200
C407        C  0.10958236  0.49931098  0.86583144    -0.11600
C408        C  0.13162718  0.49915655  0.88789927    -0.13200
C409        C  0.13035654  0.99711591  0.61016017    -0.11600
C410        C  0.10831061  0.49730925  0.63226114    -0.13200
C411        C  0.36394604  0.99959181  0.61146522    -0.11600
C412        C  0.38607015  0.99941094  0.63347744    -0.13200
C413        C  0.99873129  0.13152034  0.88869946    -0.11600
C414        C  0.49884106  0.10941380  0.86666950    -0.13200
C415        C  0.99709230  0.36497013  0.88842896    -0.11600
C416        C  0.99727784  0.38702622  0.86635890    -0.13200
C417        C  0.50019042  0.36524847  0.61084778    -0.11600
C418        C  0.99999048  0.38733750  0.63287796    -0.13200
C419        C  0.49652263  0.10979296  0.63320944    -0.11600
C420        C  0.49659607  0.13176659  0.61103933    -0.13200
O421        O  0.40052919  0.49900754  0.19180819    -0.73600
O422        O  0.44355753  0.49840312  0.15117476    -0.52500
C423        C  0.41160008  0.49888647  0.16039080     0.80100
O424        O  0.49835760  0.59523683  0.30823443    -0.58200
O425        O  0.49846008  0.55193507  0.34859200    -0.51300
C426        C  0.49858886  0.58396136  0.33958313     0.72100
O427        O  0.49679866  0.59553342  0.19156924    -0.72800
O428        O  0.99675443  0.55230895  0.15116151    -0.53300
C429        C  0.49668166  0.58430786  0.16021815     0.78100
O430        O  0.40112890  0.49660638  0.30860588    -0.57900
O431        O  0.44460801  0.99742733  0.34875157    -0.51000
C432        C  0.41255645  0.49677895  0.33989077     0.74700
Zr433      Zr  0.42506345  0.49766396  0.25009553     2.54700
O434        O  0.38122209  0.54292993  0.25116938    -0.78500
O435        O  0.38219685  0.95145091  0.25025374    -0.91900
Zr436      Zr  0.49701687  0.57101907  0.24983324     2.64700
O437        O  0.44975819  0.61278412  0.24977833    -0.96900
O438        O  0.04121652  0.61590067  0.24968028    -0.78900
O439        O  0.46035440  0.53492412  0.21633687    -0.82300
O440        O  0.46066812  0.53482595  0.28350999    -2.17000
O441        O  0.99755757  0.90127605  0.30797571    -0.65700
O442        O  0.49811233  0.94448947  0.34837673    -0.50200
C443        C  0.99767943  0.91250270  0.33931786     0.73100
O444        O  0.09443652  0.99757354  0.19077319    -0.58600
O445        O  0.05096356  0.49825606  0.15063497    -0.50600
C446        C  0.08301139  0.99766628  0.15948098     0.74900
O447        O  0.09521397  0.99939198  0.30746678    -0.70000
O448        O  0.05213755  0.99889458  0.34804625    -0.48700
C449        C  0.08409817  0.99928351  0.33886120     0.76300
O450        O  0.99952208  0.90135901  0.19133075    -0.65300
O451        O  0.99854597  0.94468053  0.15099207    -0.52500
C452        C  0.99936188  0.91266674  0.15999785     0.75900
Zr453      Zr  0.99847247  0.92563210  0.24965419     2.77500
O454        O  0.04477164  0.88283259  0.24946166    -0.96100
O455        O  0.45331033  0.88170114  0.24915878    -0.76900
Zr456      Zr  0.07048283  0.99890126  0.24930667     2.70100
O457        O  0.11424225  0.95356492  0.24958807    -0.78100
O458        O  0.11328984  0.54515308  0.24831041    -0.97200
Zr459      Zr  0.99742719  0.49842240  0.18331697     2.21500
Zr460      Zr  0.49818003  0.99825950  0.31610441     2.11100
O461        O  0.03528192  0.96161013  0.28308796    -2.45900
O462        O  0.03478452  0.96183420  0.21588744    -0.77900
O463        O  0.46145243  0.96110935  0.28344913    -0.70100
O464        O  0.03416511  0.53559105  0.21610361    -2.31100
O465        O  0.46100274  0.96108952  0.21633935    -2.27300
O466        O  0.03454002  0.53551341  0.28310464    -0.71900
H467        H  0.44644790  0.54879997  0.29858876     0.80100
H468        H  0.04821387  0.54986225  0.20112743     0.81200
H469        H  0.04964680  0.94754305  0.29797028     0.83400
H470        H  0.44692205  0.94679623  0.20143678     0.81000
H471        H  0.06251979  0.60393768  0.24194792     0.44100
H472        H  0.10756932  0.55973192  0.26859821     0.43100
H473        H  0.10443218  0.93508294  0.23479582     0.42700
H474        H  0.05917071  0.88855094  0.26986938     0.40700
H475        H  0.43392154  0.89226504  0.26217893     0.43800
H476        H  0.38635410  0.93850694  0.22853402     0.38600
H477        H  0.39148217  0.56213844  0.23764039     0.44700
H478        H  0.43563872  0.60684531  0.27033136     0.41100
H479        H  0.03322742  0.86080803  0.25568875     0.46000
H480        H  0.35984048  0.96341001  0.24646852     0.44800
H481        H  0.46084789  0.63508599  0.25580631     0.44900
H482        H  0.13532800  0.53368126  0.25462870     0.45200
O483        O  0.49704193  0.69016905  0.09681953    -0.73600
O484        O  0.99768632  0.64975054  0.05361530    -0.52500
C485        C  0.49717045  0.65881621  0.08560452     0.80100
O486        O  0.40117625  0.80719501  0.99922388    -0.58200
O487        O  0.44455668  0.84743398  0.99944197    -0.51300
C488        C  0.41252078  0.83850733  0.99914388     0.72100
O489        O  0.40053118  0.69054364  0.00070535    -0.72800
O490        O  0.44365030  0.65000497  0.00037563    -0.53300
C491        C  0.41166712  0.65915397  0.00063758     0.78100
O492        O  0.49978161  0.80681187  0.09679880    -0.57900
O493        O  0.49912550  0.84715138  0.05347226    -0.51000
C494        C  0.49973944  0.83814658  0.08549343     0.74700
Zr495      Zr  0.49851793  0.74850707  0.07247421     2.54700
O496        O  0.45328537  0.74964258  0.11635277    -0.78500
O497        O  0.04486458  0.74838526  0.11516521    -0.91900
Zr498      Zr  0.42521229  0.74872084  0.00051376     2.64700
O499        O  0.38324263  0.74862509  0.04757668    -0.96900
O500        O  0.38015588  0.74880301  0.45646065    -0.78900
O501        O  0.46120807  0.71496991  0.03706618    -0.82300
O502        O  0.46141933  0.78218535  0.03702003    -2.17000
O503        O  0.09519711  0.80631643  0.50032237    -0.65700
O504        O  0.05193080  0.84701417  0.00000308    -0.50200
C505        C  0.08409397  0.83771863  0.50033514     0.73100
O506        O  0.99852586  0.69000929  0.40272973    -0.58600
O507        O  0.99765056  0.64967939  0.44605788    -0.50600
C508        C  0.99829578  0.65866147  0.41403221     0.74900
O509        O  0.99713914  0.80661717  0.40258301    -0.70000
O510        O  0.49772645  0.84699770  0.44581963    -0.48700
C511        C  0.99732098  0.83795151  0.41382457     0.76300
O512        O  0.09456866  0.68962565  0.99808442    -0.65300
O513        O  0.05114802  0.64941345  0.99859523    -0.52500
C514        C  0.08311516  0.65822978  0.49809131     0.74700
Zr515      Zr  0.07064261  0.74815982  0.99912652     2.77500
O516        O  0.11348483  0.74788047  0.45282992    -0.96100
O517        O  0.11477322  0.74754268  0.04410571    -0.76900
Zr518      Zr  0.99740292  0.74837436  0.42708387     2.70100
O519        O  0.04269355  0.74875985  0.38328705    -0.78100
O520        O  0.45085845  0.74779946  0.38459027    -0.97200
Zr521      Zr  0.99762162  0.68203647  0.99982701     2.21500
Zr522      Zr  0.49815393  0.81481973  0.99970376     2.11100
O523        O  0.03480343  0.78181460  0.46246475    -2.45900
O524        O  0.03435855  0.71461858  0.46263956    -0.77900
O525        O  0.03522684  0.78187987  0.03628032    -0.70100
O526        O  0.46052470  0.71516886  0.46318843    -2.31100
O527        O  0.03501560  0.71479518  0.03640501    -2.27300
O528        O  0.46092900  0.78219355  0.46314826    -0.71900
H529        H  0.44747151  0.79724402  0.05129083     0.80100
H530        H  0.44620079  0.70033065  0.44906786     0.81200
H531        H  0.04892896  0.79670841  0.44816899     0.83400
H532        H  0.04925001  0.69977956  0.05044490     0.81000
H533        H  0.39215239  0.74166867  0.43497258     0.44100
H534        H  0.43627138  0.76799138  0.39064442     0.43100
H535        H  0.06060029  0.73285532  0.39243856     0.42700
H536        H  0.10807835  0.76858736  0.43871531     0.40700
H537        H  0.10398514  0.75980837  0.06385510     0.43800
H538        H  0.05796503  0.72682466  0.11065377     0.38600
H539        H  0.43406955  0.73611945  0.10613187     0.44700
H540        H  0.38964844  0.76866126  0.06219885     0.41100
H541        H  0.13559613  0.75359193  0.46446113     0.46000
H542        H  0.03301333  0.74418153  0.13750505     0.44800
H543        H  0.36116250  0.75552370  0.03653470     0.44900
H544        H  0.46215135  0.75440481  0.36254212     0.45200
O545        O  0.30566939  0.59574341  0.00033515    -0.73600
O546        O  0.34616041  0.55283466  0.50009715    -0.52500
C547        C  0.33706412  0.58460944  0.00039360     0.80100
O548        O  0.18880444  0.99762926  0.09624176    -0.58200
O549        O  0.14865784  0.49763114  0.05278889    -0.51300
C550        C  0.15751728  0.49739951  0.08484372     0.72100
O551        O  0.30546801  0.99914943  0.09704094    -0.72800
O552        O  0.34609575  0.99929002  0.05399718    -0.53300
C553        C  0.33688687  0.49929910  0.08595719     0.78100
O554        O  0.18902648  0.59523542  0.99745432    -0.57900
O555        O  0.14885938  0.55178090  0.99833444    -0.51000
C556        C  0.15773753  0.58382612  0.99759734     0.74700
Zr557      Zr  0.24744404  0.57113076  0.99889417     2.54700
O558        O  0.24615608  0.61488134  0.04420775    -0.78500
O559        O  0.24738445  0.61387967  0.45247422    -0.91900
Zr560      Zr  0.24730867  0.99909019  0.07226321     2.64700
O561        O  0.24709546  0.54623630  0.11410858    -0.96900
O562        O  0.24723836  0.95508101  0.11734416    -0.78900
O563        O  0.28098119  0.53575337  0.03628977    -0.82300
O564        O  0.21383707  0.53553854  0.03595657    -2.17000
O565        O  0.18996024  0.49895521  0.40234769    -0.65700
O566        O  0.14938217  0.49824892  0.44541909    -0.50200
C567        C  0.15856693  0.99880772  0.41345880     0.73100
O568        O  0.30654403  0.90161075  0.99900971    -0.58600
O569        O  0.34674556  0.94502877  0.99994685    -0.50600
C570        C  0.33811713  0.91328655  0.49930660     0.74900
O571        O  0.18981546  0.90116208  0.00051277    -0.70000
O572        O  0.14929234  0.94429174  0.99986483    -0.48700
C573        C  0.15865069  0.91221225  0.50038936     0.76300
O574        O  0.30671584  0.49698334  0.40297807    -0.65300
O575        O  0.34685871  0.99791676  0.44645219    -0.52500
C576        C  0.33800174  0.99716794  0.41440690     0.74700
Zr577      Zr  0.24820361  0.49788966  0.42690534     2.77500
O578        O  0.24855832  0.95190949  0.38379254    -0.96100
O579        O  0.24865808  0.54319229  0.38308634    -0.76900
Zr580      Zr  0.24806873  0.92570190  0.00015761     2.70100
O581        O  0.24805441  0.88188560  0.45500638    -0.78100
O582        O  0.24882189  0.88300687  0.04654824    -0.97200
Zr583      Zr  0.31418182  0.99867440  0.99998288     2.21500
Zr584      Zr  0.18138656  0.49812179  0.99925117     2.11100
O585        O  0.21465672  0.96101026  0.46277062    -2.45900
O586        O  0.28179991  0.96152633  0.46324816    -0.77900
O587        O  0.21420735  0.53483843  0.46224488    -0.70100
O588        O  0.28117398  0.96190407  0.03700514    -2.31100
O589        O  0.28137184  0.53531070  0.46249924    -2.27300
O590        O  0.21413836  0.96164995  0.03663110    -0.71900
H591        H  0.19869586  0.54975918  0.04987580     0.80100
H592        H  0.29603624  0.94782061  0.05133494     0.81200
H593        H  0.19982794  0.94666054  0.44864496     0.83400
H594        H  0.29633288  0.54940540  0.44827225     0.81000
H595        H  0.25376877  0.93346638  0.10524146     0.44100
H596        H  0.22871548  0.88904747  0.06125848     0.43100
H597        H  0.26235196  0.89192836  0.43624273     0.42700
H598        H  0.22819179  0.93740613  0.38942478     0.40700
H599        H  0.23545736  0.56246520  0.39363397     0.43800
H600        H  0.26909202  0.60958954  0.43953947     0.38600
H601        H  0.25953748  0.60455495  0.06348114     0.44700
H602        H  0.22629917  0.56008960  0.10840143     0.41100
H603        H  0.24230070  0.96359934  0.36184839     0.46000
H604        H  0.25124224  0.63627556  0.46431362     0.44800
H605        H  0.24141401  0.53499509  0.13644070     0.44900
H606        H  0.24211408  0.86102782  0.03520781     0.45200
C607        C  0.36503526  0.88766762  0.99895159    -0.11600
C608        C  0.38715057  0.86563653  0.99888888    -0.13200
C609        C  0.36404234  0.61013442  0.00065991    -0.11600
C610        C  0.38613469  0.63218115  0.00071901    -0.13200
C611        C  0.13170602  0.88669250  0.50059677    -0.11600
C612        C  0.10963185  0.86464972  0.50059855    -0.13200
C613        C  0.10836852  0.63102576  0.49747927    -0.11600
C614        C  0.13056196  0.60911804  0.99721619    -0.13200
C615        C  0.38726783  0.49649279  0.36707430    -0.11600
C616        C  0.36519354  0.99665021  0.38913127    -0.13200
C617        C  0.10961042  0.99937867  0.36582101    -0.11600
C618        C  0.13162779  0.99919939  0.38792412    -0.13200
C619        C  0.13033646  0.49709293  0.11016383    -0.11600
C620        C  0.10828781  0.99721095  0.13226299    -0.13200
C621        C  0.36384647  0.49932256  0.11150103    -0.11600
C622        C  0.38600326  0.49919527  0.13348155    -0.13200
C623        C  0.99866924  0.63152797  0.38866219    -0.11600
C624        C  0.49879495  0.60939668  0.36665291    -0.13200
C625        C  0.99726043  0.86499295  0.38839991    -0.11600
C626        C  0.99739588  0.88706444  0.36634610    -0.13200
C627        C  0.50011543  0.86522314  0.11087592    -0.11600
C628        C  0.99996204  0.88728980  0.13292263    -0.13200
C629        C  0.49665898  0.60974738  0.13316466    -0.11600
C630        C  0.49682152  0.63178723  0.11106509    -0.13200
O631        O  0.40055563  0.49899716  0.69182122    -0.73600
O632        O  0.44360040  0.49861600  0.65120161    -0.52500
C633        C  0.41164243  0.49901864  0.66040697     0.80100
O634        O  0.49836990  0.59528159  0.80824880    -0.58200
O635        O  0.49847950  0.55196195  0.84858920    -0.51300
C636        C  0.49861326  0.58399312  0.83959061     0.72100
O637        O  0.49678157  0.59559812  0.69164143    -0.72800
O638        O  0.99678413  0.55237542  0.65123222    -0.53300
C639        C  0.49665807  0.58437295  0.66028708     0.78100
O640        O  0.40114451  0.49646042  0.80862187    -0.57900
O641        O  0.44460771  0.99739209  0.84878164    -0.51000
C642        C  0.41256325  0.49666833  0.83990919     0.74700
Zr643      Zr  0.42508093  0.49764990  0.75011909     2.54700
O644        O  0.38132985  0.54299594  0.75125203    -0.78500
O645        O  0.38211720  0.95152906  0.75025061    -0.91900
Zr646      Zr  0.49701495  0.57101015  0.74988379     2.64700
O647        O  0.44961588  0.61261045  0.74975373    -0.96900
O648        O  0.04115807  0.61594044  0.74981055    -0.78900
O649        O  0.46037732  0.53491504  0.71638001    -0.82300
O650        O  0.46066813  0.53480638  0.78356241    -2.17000
O651        O  0.99746954  0.90124950  0.80798039    -0.65700
O652        O  0.49812211  0.94445040  0.84839724    -0.50200
C653        C  0.99762251  0.91246657  0.83932917     0.73100
O654        O  0.09442891  0.99770559  0.69076704    -0.58600
O655        O  0.05097228  0.49832922  0.65061281    -0.50600
C656        C  0.08301806  0.99778326  0.65946820     0.74900
O657        O  0.09513827  0.99932727  0.80750228    -0.70000
O658        O  0.05209605  0.99886934  0.84812392    -0.48700
C659        C  0.08404606  0.99922694  0.83890594     0.76300
O660        O  0.99954414  0.90141039  0.69129184    -0.65300
O661        O  0.99851924  0.94473791  0.65095779    -0.52500
C662        C  0.99936194  0.91272092  0.65995715     0.75900
Zr663      Zr  0.99847244  0.92562617  0.74965234     2.77500
O664        O  0.04481327  0.88287606  0.74957353    -0.96100
O665        O  0.45331801  0.88168625  0.74905503    -0.76900
Zr666      Zr  0.07046835  0.99888456  0.74931258     2.70100
O667        O  0.11408787  0.95341259  0.74958741    -0.78100
O668        O  0.11335741  0.54505463  0.74821931    -0.97200
Zr669      Zr  0.99745672  0.49845853  0.68332996     2.21500
Zr670      Zr  0.49817615  0.99824012  0.81614714     2.11100
O671        O  0.03526214  0.96160488  0.78310024    -2.45900
O672        O  0.03478748  0.96182717  0.71587495    -0.77900
O673        O  0.46146193  0.96109062  0.78346943    -0.70100
O674        O  0.03417560  0.53561630  0.71613452    -2.31100
O675        O  0.46103078  0.96111221  0.71634230    -2.27300
O676        O  0.03453953  0.53548498  0.78314300    -0.71900
H677        H  0.44644301  0.54876935  0.79864736     0.80100
H678        H  0.04822465  0.54990310  0.70117294     0.81200
H679        H  0.04962385  0.94753212  0.79797973     0.83400
H680        H  0.44694884  0.94683018  0.70143092     0.81000
H681        H  0.06254688  0.60393758  0.74238235     0.44100
H682        H  0.10768203  0.55966904  0.76849337     0.43100
H683        H  0.10441516  0.93514302  0.73444449     0.42700
H684        H  0.05928721  0.88875360  0.76988274     0.40700
H685        H  0.43365367  0.89250761  0.76143446     0.43800
H686        H  0.38624558  0.93859038  0.72852236     0.38600
H687        H  0.39127688  0.56188307  0.73705251     0.44700
H688        H  0.43540687  0.60653972  0.77020585     0.41100
H689        H  0.03331711  0.86088488  0.75600382     0.46000
H690        H  0.35978669  0.96353963  0.74647508     0.44800
H691        H  0.46059557  0.63492580  0.75592918     0.44900
H692        H  0.13538107  0.53355053  0.75452744     0.45200
O693        O  0.49695757  0.69012977  0.59674084    -0.73600
O694        O  0.99738316  0.64969196  0.55355403    -0.52500
C695        C  0.49694985  0.65877009  0.58554303     0.80100
O696        O  0.40127214  0.80741379  0.49917604    -0.58200
O697        O  0.44474017  0.84755990  0.49949208    -0.51300
C698        C  0.41268492  0.83870529  0.49915196     0.72100
O699        O  0.40045646  0.69074763  0.50063838    -0.72800
O700        O  0.44351475  0.65013833  0.50037778    -0.53300
C701        C  0.41154857  0.65934115  0.50061123     0.78100
O702        O  0.49992534  0.80682033  0.59676044    -0.57900
O703        O  0.49919813  0.84717408  0.55344631    -0.51000
C704        C  0.49984598  0.83816294  0.58546419     0.74700
Zr705      Zr  0.49853692  0.74849588  0.57244401     2.54700
O706        O  0.45334884  0.74953573  0.61636780    -0.78500
O707        O  0.04491346  0.74834510  0.61509787    -0.91900
Zr708      Zr  0.42522552  0.74888696  0.50046515     2.64700
O709        O  0.38341954  0.74875285  0.54767263    -0.96900
O710        O  0.38020316  0.74857374  0.95644981    -0.78900
O711        O  0.46117546  0.71506715  0.53699779    -0.82300
O712        O  0.46149764  0.78225070  0.53699180    -2.17000
O713        O  0.09505201  0.80647684  0.00021496    -0.65700
O714        O  0.05214005  0.84692161  0.49997401    -0.50200
C715        C  0.08389613  0.83785954  0.00028652     0.73100
O716        O  0.99853974  0.68998612  0.90276664    -0.58600
O717        O  0.99776827  0.64966010  0.94609690    -0.50600
C718        C  0.99836377  0.65864290  0.91407157     0.74900
O719        O  0.99695083  0.80660183  0.90263530    -0.70000
O720        O  0.49759208  0.84699742  0.94585734    -0.48700
C721        C  0.99714734  0.83794052  0.91386640     0.76300
O722        O  0.09456166  0.68951063  0.49811048    -0.65300
O723        O  0.05106686  0.64938149  0.49871481    -0.52500
C724        C  0.08317844  0.65832202  0.99800499     0.74700
Zr725      Zr  0.07067315  0.74804727  0.49913423     2.77500
O726        O  0.11344716  0.74808796  0.95281232    -0.96100
O727        O  0.11489170  0.74734491  0.54403242    -0.76900
Zr728      Zr  0.99737685  0.74834251  0.92710126     2.70100
O729        O  0.04260714  0.74863810  0.88323284    -0.78100
O730        O  0.45088881  0.74754510  0.88456337    -0.97200
Zr731      Zr  0.99754483  0.68204825  0.49979774     2.21500
Zr732      Zr  0.49827827  0.81484227  0.49968611     2.11100
O733        O  0.03472984  0.78186863  0.96245153    -2.45900
O734        O  0.03437315  0.71466513  0.96266811    -0.77900
O735        O  0.03528674  0.78182379  0.53626180    -0.70100
O736        O  0.46055814  0.71508478  0.96321864    -2.31100
O737        O  0.03499759  0.71471494  0.53640449    -2.27300
O738        O  0.46085902  0.78207711  0.96319053    -0.71900
H739        H  0.44757447  0.79732449  0.55126874     0.80100
H740        H  0.44626314  0.70021633  0.94910686     0.81200
H741        H  0.04882762  0.79678260  0.94814712     0.83400
H742        H  0.04919860  0.69967204  0.55045117     0.81000
H743        H  0.39188164  0.73995782  0.93533263     0.44100
H744        H  0.43599632  0.76744348  0.89083850     0.43100
H745        H  0.06070506  0.73306133  0.89257045     0.42700
H746        H  0.10821904  0.76897980  0.93890346     0.40700
H747        H  0.10390007  0.75896162  0.56405933     0.43800
H748        H  0.05781221  0.72662377  0.61078061     0.38600
H749        H  0.43388635  0.73658264  0.60587899     0.44700
H750        H  0.38957348  0.76905942  0.56202762     0.41100
H751        H  0.13560659  0.75349385  0.96449739     0.46000
H752        H  0.03303908  0.74445961  0.63748252     0.44800
H753        H  0.36120307  0.75518475  0.53662439     0.44900
H754        H  0.46209878  0.75456715  0.86260144     0.45200
O755        O  0.30555939  0.59590294  0.50032927    -0.73600
O756        O  0.34622602  0.55263073  0.00009085    -0.52500
C757        C  0.33696317  0.58480062  0.50039075     0.80100
O758        O  0.18883139  0.99762687  0.59624117    -0.58200
O759        O  0.14868339  0.49756682  0.55278937    -0.51300
C760        C  0.15754247  0.49736901  0.58484285     0.72100
O761        O  0.30556550  0.99940666  0.59703125    -0.72800
O762        O  0.34617008  0.99951265  0.55396627    -0.53300
C763        C  0.33697936  0.49956003  0.58593008     0.78100
O764        O  0.18889825  0.59516604  0.49742603    -0.57900
O765        O  0.14880799  0.55164160  0.49841186    -0.51000
C766        C  0.15763047  0.58370031  0.49762854     0.74700
Zr767      Zr  0.24737428  0.57120973  0.49890144     2.54700
O768        O  0.24607499  0.61501330  0.54417325    -0.78500
O769        O  0.24738518  0.61387292  0.95254310    -0.91900
Zr770      Zr  0.24736899  0.99917727  0.57231592     2.64700
O771        O  0.24719654  0.54636309  0.61412113    -0.96900
O772        O  0.24724229  0.95520175  0.61744270    -0.78900
O773        O  0.28095573  0.53588518  0.53630596    -0.82300
O774        O  0.21384453  0.53556008  0.53598778    -2.17000
O775        O  0.18994882  0.49885021  0.90234446    -0.65700
O776        O  0.14933500  0.49836041  0.94538820    -0.50200
C777        C  0.15854875  0.99880174  0.91343733     0.73100
O778        O  0.30682320  0.90186992  0.49902697    -0.58600
O779        O  0.34696315  0.94533938  0.49997775    -0.50600
C780        C  0.33785207  0.91298664  0.99928146     0.74900
O781        O  0.19004749  0.90110524  0.50055298    -0.70000
O782        O  0.14945601  0.94416551  0.49991759    -0.48700
C783        C  0.15843831  0.91232616  0.00034761     0.76300
O784        O  0.30674919  0.49681350  0.90302164    -0.65300
O785        O  0.34690463  0.99777457  0.94648319    -0.52500
C786        C  0.33803918  0.99700458  0.91444221     0.74700
Zr787      Zr  0.24820057  0.49782632  0.92688396     2.77500
O788        O  0.24857817  0.95196744  0.88364137    -0.96100
O789        O  0.24868280  0.54311426  0.88304718    -0.76900
Zr790      Zr  0.24825189  0.92576277  0.50019685     2.70100
O791        O  0.24798894  0.88176763  0.95501965    -0.78100
O792        O  0.24909869  0.88287106  0.54640804    -0.97200
Zr793      Zr  0.31419796  0.99884476  0.49999882     2.21500
Zr794      Zr  0.18145082  0.49806368  0.49929049     2.11100
O795        O  0.21455279  0.96101468  0.96273131    -2.45900
O796        O  0.28172066  0.96140281  0.96323005    -0.77900
O797        O  0.21423669  0.53482439  0.96221248    -0.70100
O798        O  0.28128635  0.96201892  0.53706961    -2.31100
O799        O  0.28141065  0.53520048  0.96248469    -2.27300
O800        O  0.21428339  0.96166778  0.53667699    -0.71900
H801        H  0.19868537  0.54976150  0.54990536     0.80100
H802        H  0.29618413  0.94796532  0.55140406     0.81200
H803        H  0.19971126  0.94668655  0.94859851     0.83400
H804        H  0.29639446  0.54928024  0.94826183     0.81000
H805        H  0.25394380  0.93360571  0.60539856     0.44100
H806        H  0.22904141  0.88886766  0.56120317     0.43100
H807        H  0.26144968  0.89222353  0.93586604     0.42700
H808        H  0.22828462  0.93737447  0.88930463     0.40700
H809        H  0.23527850  0.56230716  0.89348292     0.43800
H810        H  0.26866906  0.60907272  0.93909540     0.38600
H811        H  0.25889267  0.60444630  0.56369826     0.44700
H812        H  0.22602236  0.55981673  0.60886564     0.41100
H813        H  0.24220096  0.96369409  0.86175091     0.46000
H814        H  0.25207104  0.63614514  0.96431638     0.44800
H815        H  0.24222644  0.53504309  0.63658252     0.44900
H816        H  0.24233807  0.86094514  0.53499487     0.45200
C817        C  0.36532127  0.88798840  0.49897851    -0.11600
C818        C  0.38738341  0.86590267  0.49890962    -0.13200
C819        C  0.36391185  0.61034661  0.50065195    -0.11600
C820        C  0.38599036  0.63240165  0.50070355    -0.13200
C821        C  0.13145930  0.88685733  0.00055482    -0.11600
C822        C  0.10938627  0.86482199  0.00054367    -0.13200
C823        C  0.10848259  0.63116567  0.99738490    -0.11600
C824        C  0.13042105  0.60895248  0.49727972    -0.13200
C825        C  0.38727565  0.49633988  0.86708633    -0.11600
C826        C  0.36521918  0.99647998  0.88915801    -0.13200
C827        C  0.10958417  0.99931113  0.86582866    -0.11600
C828        C  0.13162900  0.99915671  0.88789647    -0.13200
C829        C  0.13036004  0.49711529  0.61016286    -0.11600
C830        C  0.10830709  0.99730996  0.63225851    -0.13200
C831        C  0.36394950  0.49959170  0.61146261    -0.11600
C832        C  0.38607377  0.49941071  0.63347473    -0.13200
C833        C  0.99873097  0.63152086  0.88869874    -0.11600
C834        C  0.49884074  0.60941412  0.86666896    -0.13200
C835        C  0.99709228  0.86497049  0.88842905    -0.11600
C836        C  0.99727805  0.88702667  0.86635909    -0.13200
C837        C  0.50018887  0.86524822  0.61084808    -0.11600
C838        C  0.99998836  0.88733741  0.63287809    -0.13200
C839        C  0.49652565  0.60979268  0.63320916    -0.11600
C840        C  0.49659843  0.63176623  0.61103894    -0.13200
O841        O  0.90052665  0.99900820  0.19181058    -0.73600
O842        O  0.94355415  0.99840324  0.15117626    -0.52500
C843        C  0.91159690  0.99888685  0.16039298     0.80100
O844        O  0.99835731  0.09523674  0.30823484    -0.58200
O845        O  0.99846105  0.05193488  0.34859226    -0.51300
C846        C  0.99858930  0.08396119  0.33958354     0.72100
O847        O  0.99679679  0.09553374  0.19156953    -0.72800
O848        O  0.49675052  0.05230925  0.15116176    -0.53300
C849        C  0.99667879  0.08430821  0.16021843     0.78100
O850        O  0.90112937  0.99660626  0.30860809    -0.57900
O851        O  0.94460661  0.49742720  0.34875038    -0.51000
C852        C  0.91255762  0.99677890  0.33989273     0.74700
Zr853      Zr  0.92506249  0.99766421  0.25009713     2.54700
O854        O  0.88122150  0.04293046  0.25117274    -0.78500
O855        O  0.88219733  0.45145103  0.25025162    -0.91900
Zr856      Zr  0.99701589  0.07101927  0.24983346     2.64700
O857        O  0.94975734  0.11278447  0.24977955    -0.96900
O858        O  0.54121526  0.11590120  0.24967998    -0.78900
O859        O  0.96035273  0.03492437  0.21633770    -0.82300
O860        O  0.96066785  0.03482609  0.28351082    -2.17000
O861        O  0.49755845  0.40127564  0.30797564    -0.65700
O862        O  0.99811147  0.44448908  0.34837666    -0.50200
C863        C  0.49767952  0.41250231  0.33931780     0.73100
O864        O  0.59443900  0.49757341  0.19077560    -0.58600
O865        O  0.55096019  0.99825673  0.15063354    -0.50600
C866        C  0.58301448  0.49766575  0.15948317     0.74900
O867        O  0.59521344  0.49939180  0.30746924    -0.70000
O868        O  0.55213611  0.49889417  0.34804776    -0.48700
C869        C  0.58409694  0.49928316  0.33886342     0.76300
O870        O  0.49952448  0.40135881  0.19133079    -0.65300
O871        O  0.49854843  0.44468041  0.15099221    -0.52500
C872        C  0.49936432  0.41266663  0.15999792     0.75900
Zr873      Zr  0.49847375  0.42563196  0.24965421     2.77500
O874        O  0.54477290  0.38283237  0.24946240    -0.96100
O875        O  0.95331083  0.38170182  0.24915781    -0.76900
Zr876      Zr  0.57048387  0.49890129  0.24930840     2.70100
O877        O  0.61424328  0.45356502  0.24959044    -0.78100
O878        O  0.61328903  0.04515274  0.24830704    -0.97200
Zr879      Zr  0.49742460  0.99842256  0.18331696     2.21500
Zr880      Zr  0.99817944  0.49825936  0.31610454     2.11100
O881        O  0.53528227  0.46161016  0.28308881    -2.45900
O882        O  0.53478648  0.46183413  0.21588823    -0.77900
O883        O  0.96145268  0.46110917  0.28344835    -0.70100
O884        O  0.53416326  0.03559114  0.21610285    -2.31100
O885        O  0.96100452  0.46108937  0.21633846    -2.27300
O886        O  0.53454001  0.03551361  0.28310385    -0.71900
H887        H  0.94644790  0.04880003  0.29858991     0.80100
H888        H  0.54821167  0.04986234  0.20112635     0.81200
H889        H  0.54964690  0.44754320  0.29797130     0.83400
H890        H  0.94692412  0.44679595  0.20143541     0.81000
H891        H  0.56251849  0.10393844  0.24194724     0.44100
H892        H  0.60756982  0.05973125  0.26859542     0.43100
H893        H  0.60443365  0.43508328  0.23479760     0.42700
H894        H  0.55917245  0.38855158  0.26986959     0.40700
H895        H  0.93392191  0.39226597  0.26217752     0.43800
H896        H  0.88635721  0.43850481  0.22853371     0.38600
H897        H  0.89148022  0.06213806  0.23764140     0.44700
H898        H  0.93563874  0.10684625  0.27033335     0.41100
H899        H  0.53322886  0.36080810  0.25569063     0.46000
H900        H  0.85984151  0.46340989  0.24646240     0.44800
H901        H  0.96084741  0.13508641  0.25580654     0.44900
H902        H  0.63532751  0.03368064  0.25462381     0.45200
O903        O  0.99704077  0.19016951  0.09681986    -0.73600
O904        O  0.49768515  0.14975078  0.05361588    -0.52500
C905        C  0.99716897  0.15881662  0.08560498     0.80100
O906        O  0.90117652  0.30719521  0.99922362    -0.58200
O907        O  0.94455717  0.34743397  0.99944174    -0.51300
C908        C  0.91252123  0.33850747  0.99914357     0.72100
O909        O  0.90053069  0.19054381  0.00070614    -0.72800
O910        O  0.94364977  0.15000512  0.00037642    -0.53300
C911        C  0.91166659  0.15915410  0.00063858     0.78100
O912        O  0.99978214  0.30681219  0.09679878    -0.57900
O913        O  0.99912628  0.34715149  0.05347206    -0.51000
C914        C  0.99974035  0.33814684  0.08549326     0.74700
Zr915      Zr  0.99851789  0.24850739  0.07247443     2.54700
O916        O  0.95328566  0.24964424  0.11635332    -0.78500
O917        O  0.54486531  0.24838537  0.11516469    -0.91900
Zr918      Zr  0.92521229  0.24872096  0.00051379     2.64700
O919        O  0.88324299  0.24862623  0.04757698    -0.96900
O920        O  0.88015611  0.24880359  0.45646037    -0.78900
O921        O  0.96120788  0.21497023  0.03706649    -0.82300
O922        O  0.96141946  0.28218551  0.03701988    -2.17000
O923        O  0.59519732  0.30631630  0.50032314    -0.65700
O924        O  0.55193122  0.34701421  0.00000307    -0.50200
C925        C  0.58409433  0.33771860  0.50033568     0.73100
O926        O  0.49852616  0.19000897  0.40273031    -0.58600
O927        O  0.49765056  0.14967919  0.44605857    -0.50600
C928        C  0.49829596  0.15866118  0.41403287     0.74900
O929        O  0.49713941  0.30661703  0.40258334    -0.70000
O930        O  0.99772672  0.34699770  0.44581981    -0.48700
C931        C  0.49732123  0.33795140  0.41382480     0.76300
O932        O  0.59456834  0.18962539  0.99808442    -0.65300
O933        O  0.55114762  0.14941324  0.99859552    -0.52500
C934        C  0.58311472  0.15822961  0.49809140     0.74700
Zr935      Zr  0.57064267  0.24815965  0.99912702     2.77500
O936        O  0.61348553  0.24788002  0.45283120    -0.96100
O937        O  0.61477245  0.24754148  0.04410697    -0.76900
Zr938      Zr  0.49740289  0.24837417  0.42708418     2.70100
O939        O  0.54269310  0.24875945  0.38328692    -0.78100
O940        O  0.95085826  0.24779911  0.38459090    -0.97200
Zr941      Zr  0.49762128  0.18203644  0.99982749     2.21500
Zr942      Zr  0.99815436  0.31481967  0.99970371     2.11100
O943        O  0.53480364  0.28181427  0.46246497    -2.45900
O944        O  0.53435833  0.21461850  0.46264013    -0.77900
O945        O  0.53522705  0.28187999  0.03628058    -0.70100
O946        O  0.96052448  0.21516878  0.46318861    -2.31100
O947        O  0.53501536  0.21479510  0.03640537    -2.27300
O948        O  0.96092922  0.28219359  0.46314842    -0.71900
H949        H  0.94747168  0.29724425  0.05129047     0.80100
H950        H  0.94620055  0.20033054  0.44906808     0.81200
H951        H  0.54892927  0.29670796  0.44816919     0.83400
H952        H  0.54924959  0.19977943  0.05044521     0.81000
H953        H  0.89215293  0.24167033  0.43497214     0.44100
H954        H  0.93627131  0.26799113  0.39064491     0.43100
H955        H  0.56060199  0.23285846  0.39244039     0.42700
H956        H  0.60807803  0.26858573  0.43871529     0.40700
H957        H  0.60398475  0.25980854  0.06385573     0.43800
H958        H  0.55796310  0.22682262  0.11065578     0.38600
H959        H  0.93407022  0.23611974  0.10613348     0.44700
H960        H  0.88964934  0.26866234  0.06219903     0.41100
H961        H  0.63559629  0.25359357  0.46446243     0.46000
H962        H  0.53301393  0.24418587  0.13750523     0.44800
H963        H  0.86116294  0.25552523  0.03653511     0.44900
H964        H  0.96215103  0.25440418  0.36254258     0.45200
O965        O  0.80566906  0.09574307  0.00033619    -0.73600
O966        O  0.84615994  0.05283433  0.50009922    -0.52500
C967        C  0.83706379  0.08460909  0.00039512     0.80100
O968        O  0.68880761  0.49762935  0.09624333    -0.58200
O969        O  0.64865563  0.99763131  0.05278643    -0.51300
C970        C  0.65751430  0.99739965  0.08484149     0.72100
O971        O  0.80547130  0.49914980  0.09703949    -0.72800
O972        O  0.84609805  0.49929040  0.05399480    -0.53300
C973        C  0.83688376  0.99929877  0.08595936     0.78100
O974        O  0.68902622  0.09523549  0.99745409    -0.57900
O975        O  0.64885901  0.05178103  0.99833267    -0.51000
C976        C  0.65773725  0.08382621  0.99759639     0.74700
Zr977      Zr  0.74744366  0.07113056  0.99889421     2.54700
O978        O  0.74615525  0.11488184  0.04420713    -0.78500
O979        O  0.74738515  0.11387898  0.45247404    -0.91900
Zr980      Zr  0.74731120  0.49909065  0.07226335     2.64700
O981        O  0.74709182  0.04623590  0.11410829    -0.96900
O982        O  0.74724195  0.45508175  0.11734454    -0.78900
O983        O  0.78097967  0.03575295  0.03629063    -0.82300
O984        O  0.71383562  0.03553829  0.03595568    -2.17000
O985        O  0.68996169  0.99895537  0.40234621    -0.65700
O986        O  0.64938267  0.99824886  0.44541673    -0.50200
C987        C  0.65856568  0.49880762  0.41346097     0.73100
O988        O  0.80654486  0.40161103  0.99900976    -0.58600
O989        O  0.84674631  0.44502916  0.99994535    -0.50600
C990        C  0.83811788  0.41328688  0.49930606     0.74900
O991        O  0.68981635  0.40116192  0.00051360    -0.70000
O992        O  0.64929321  0.44429157  0.99986691    -0.48700
C993        C  0.65865160  0.41221208  0.50039082     0.76300
O994        O  0.80671738  0.99698324  0.40297928    -0.65300
O995        O  0.84685819  0.49791712  0.44645008    -0.52500
C996        C  0.83800048  0.49716813  0.41440500     0.74700
Zr997      Zr  0.74820456  0.99788952  0.42690518     2.77500
O998        O  0.74855666  0.45190955  0.38379278    -0.96100
O999        O  0.74866007  0.04319249  0.38308654    -0.76900
Zr1000     Zr  0.74806955  0.42570209  0.00015805     2.70100
O1001       O  0.74805589  0.38188550  0.45500720    -0.78100
O1002       O  0.74882317  0.38300774  0.04654933    -0.97200
Zr1003     Zr  0.81418254  0.49867474  0.99998146     2.21500
Zr1004     Zr  0.68138584  0.99812181  0.99924953     2.11100
O1005       O  0.71465672  0.46101030  0.46277167    -2.45900
O1006       O  0.78179979  0.46152660  0.46324775    -0.77900
O1007       O  0.71420771  0.03483826  0.46224421    -0.70100
O1008       O  0.78117573  0.46190446  0.03700464    -2.31100
O1009       O  0.78137203  0.03531045  0.46249999    -2.27300
O1010       O  0.71413999  0.46165019  0.03663224    -0.71900
H1011       H  0.69869410  0.04975882  0.04987449     0.80100
H1012       H  0.79603844  0.44782103  0.05133416     0.81200
H1013       H  0.69982770  0.44666053  0.44864633     0.83400
H1014       H  0.79633338  0.04940522  0.44827342     0.81000
H1015       H  0.75377882  0.43346838  0.10524308     0.44100
H1016       H  0.72871821  0.38904992  0.06126085     0.43100
H1017       H  0.76235138  0.39192925  0.43624251     0.42700
H1018       H  0.72818855  0.43740786  0.38942351     0.40700
H1019       H  0.73546048  0.06246588  0.39363467     0.43800
H1020       H  0.76909208  0.10958737  0.43953862     0.38600
H1021       H  0.75953641  0.10455578  0.06348088     0.44700
H1022       H  0.72629658  0.06009010  0.10839961     0.41100
H1023       H  0.74230164  0.46359999  0.36184816     0.46000
H1024       H  0.75124471  0.13627470  0.46431306     0.44800
H1025       H  0.74140819  0.03499498  0.13644002     0.44900
H1026       H  0.74211309  0.36102892  0.03520974     0.45200
C1027       C  0.86503604  0.38766803  0.99895104    -0.11600
C1028       C  0.88715119  0.36563680  0.99888841    -0.13200
C1029       C  0.86404203  0.11013415  0.00066154    -0.11600
C1030       C  0.88613417  0.13218115  0.00072049    -0.13200
C1031       C  0.63170680  0.38669233  0.50059811    -0.11600
C1032       C  0.60963238  0.36464968  0.50059953    -0.13200
C1033       C  0.60836809  0.13102564  0.49747895    -0.11600
C1034       C  0.63056171  0.10911808  0.99721549    -0.13200
C1035       C  0.88726958  0.99649274  0.36707679    -0.11600
C1036       C  0.86519172  0.49665023  0.38912875    -0.13200
C1037       C  0.60960860  0.49937830  0.36582376    -0.11600
C1038       C  0.63162604  0.49919916  0.38792682    -0.13200
C1039       C  0.63033291  0.99709344  0.11016110    -0.11600
C1040       C  0.60829135  0.49721021  0.13226570    -0.13200
C1041       C  0.86384282  0.99932245  0.11150372    -0.11600
C1042       C  0.88599960  0.99919545  0.13348424    -0.13200
C1043       C  0.49866952  0.13152758  0.38866290    -0.11600
C1044       C  0.99879547  0.10939639  0.36665347    -0.13200
C1045       C  0.49726056  0.36499275  0.38840005    -0.11600
C1046       C  0.49739596  0.38706408  0.36634607    -0.13200
C1047       C  0.00011710  0.36522343  0.11087566    -0.11600
C1048       C  0.49996420  0.38728986  0.13292257    -0.13200
C1049       C  0.99665610  0.10974778  0.13316503    -0.11600
C1050       C  0.99681914  0.13178776  0.11106561    -0.13200
O1051       O  0.90055316  0.99899765  0.69182365    -0.73600
O1052       O  0.94359702  0.99861596  0.65120308    -0.52500
C1053       C  0.91163928  0.99901889  0.66040916     0.80100
O1054       O  0.99836964  0.09528151  0.80824917    -0.58200
O1055       O  0.99848049  0.05196180  0.84858945    -0.51300
C1056       C  0.99861370  0.08399296  0.83959096     0.72100
O1057       O  0.99677946  0.09559822  0.69164161    -0.72800
O1058       O  0.49678043  0.05237563  0.65123227    -0.53300
C1059       C  0.99665500  0.08437314  0.66028723     0.78100
O1060       O  0.90114498  0.99646076  0.80862416    -0.57900
O1061       O  0.94460631  0.49739195  0.84878037    -0.51000
C1062       C  0.91256445  0.99666855  0.83991122     0.74700
Zr1063     Zr  0.92508002  0.99765007  0.75012079     2.54700
O1064       O  0.88132898  0.04299606  0.75125536    -0.78500
O1065       O  0.88211749  0.45152950  0.75024853    -0.91900
Zr1066     Zr  0.99701400  0.07101032  0.74988399     2.64700
O1067       O  0.94961485  0.11261051  0.74975473    -0.96900
O1068       O  0.54115676  0.11594099  0.74981028    -0.78900
O1069       O  0.96037558  0.03491531  0.71638095    -0.82300
O1070       O  0.96066801  0.03480647  0.78356324    -2.17000
O1071       O  0.49747018  0.40124911  0.80798022    -0.65700
O1072       O  0.99812125  0.44445002  0.84839710    -0.50200
C1073       C  0.49762227  0.41246617  0.83932901     0.73100
O1074       O  0.59443131  0.49770514  0.69076934    -0.58600
O1075       O  0.55096905  0.99832969  0.65061151    -0.50600
C1076       C  0.58302112  0.49778270  0.65947027     0.74900
O1077       O  0.59513767  0.49932730  0.80750475    -0.70000
O1078       O  0.55209456  0.49886916  0.84812545    -0.48700
C1079       C  0.58404476  0.49922685  0.83890819     0.76300
O1080       O  0.49954630  0.40141022  0.69129180    -0.65300
O1081       O  0.49852195  0.44473782  0.65095782    -0.52500
C1082       C  0.49936438  0.41272084  0.65995712     0.75900
Zr1083     Zr  0.49847360  0.42562603  0.74965233     2.77500
O1084       O  0.54481447  0.38287592  0.74957427    -0.96100
O1085       O  0.95331851  0.38168685  0.74905402    -0.76900
Zr1086     Zr  0.57046935  0.49888450  0.74931431     2.70100
O1087       O  0.61408918  0.45341287  0.74959000    -0.78100
O1088       O  0.61335683  0.04505421  0.74821622    -0.97200
Zr1089     Zr  0.49745416  0.99845867  0.68332994     2.21500
Zr1090     Zr  0.99817559  0.49823997  0.81614718     2.11100
O1091       O  0.53526243  0.46160476  0.78310118    -2.45900
O1092       O  0.53478928  0.46182713  0.71587586    -0.77900
O1093       O  0.96146224  0.46109044  0.78346852    -0.70100
O1094       O  0.53417375  0.03561641  0.71613378    -2.31100
O1095       O  0.96103261  0.46111206  0.71634153    -2.27300
O1096       O  0.53453945  0.03548515  0.78314227    -0.71900
H1097       H  0.94644321  0.04876943  0.79864848     0.80100
H1098       H  0.54822236  0.04990310  0.70117203     0.81200
H1099       H  0.54962386  0.44753196  0.79798107     0.83400
H1100       H  0.94695098  0.44683001  0.70142987     0.81000
H1101       H  0.56254582  0.10393808  0.74238291     0.44100
H1102       H  0.60768298  0.05966814  0.76849106     0.43100
H1103       H  0.60441675  0.43514312  0.73444712     0.42700
H1104       H  0.55928898  0.38875444  0.76988281     0.40700
H1105       H  0.93365393  0.39250869  0.76143264     0.43800
H1106       H  0.88624788  0.43858899  0.72852171     0.38600
H1107       H  0.89127572  0.06188340  0.73705592     0.44700
H1108       H  0.93540651  0.10654015  0.77020747     0.41100
H1109       H  0.53331857  0.36088503  0.75600591     0.46000
H1110       H  0.85978755  0.46354000  0.74646980     0.44800
H1111       H  0.96059465  0.13492601  0.75592934     0.44900
H1112       H  0.63538074  0.03354964  0.75452256     0.45200
O1113       O  0.99695648  0.19013011  0.59674130    -0.73600
O1114       O  0.49738220  0.14969229  0.55355454    -0.52500
C1115       C  0.99694849  0.15877043  0.58554346     0.80100
O1116       O  0.90127257  0.30741414  0.49917574    -0.58200
O1117       O  0.94474073  0.34756012  0.49949227    -0.51300
C1118       C  0.91268547  0.33870559  0.49915183     0.72100
O1119       O  0.90045597  0.19074786  0.50063893    -0.72800
O1120       O  0.94351418  0.15013849  0.50037834    -0.53300
C1121       C  0.91154800  0.15934132  0.50061197     0.78100
O1122       O  0.99992587  0.30682060  0.59676039    -0.57900
O1123       O  0.99919892  0.34717420  0.55344613    -0.51000
C1124       C  0.99984690  0.33816316  0.58546401     0.74700
Zr1125     Zr  0.99853682  0.24849608  0.57244429     2.54700
O1126       O  0.95334913  0.24953733  0.61636850    -0.78500
O1127       O  0.54491395  0.24834513  0.61509764    -0.91900
Zr1128     Zr  0.92522545  0.24888715  0.50046519     2.64700
O1129       O  0.88341949  0.24875398  0.54767264    -0.96900
O1130       O  0.88020332  0.24857431  0.95644972    -0.78900
O1131       O  0.96117518  0.21506748  0.53699810    -0.82300
O1132       O  0.96149773  0.28225083  0.53699179    -2.17000
O1133       O  0.59505225  0.30647671  0.00021594    -0.65700
O1134       O  0.55214042  0.34692162  0.49997403    -0.50200
C1135       C  0.58389653  0.33785949  0.00028713     0.73100
O1136       O  0.49854009  0.18998564  0.90276726    -0.58600
O1137       O  0.49776809  0.14965973  0.94609762    -0.50600
C1138       C  0.49836388  0.15864244  0.91407227     0.74900
O1139       O  0.49695117  0.30660152  0.90263548    -0.70000
O1140       O  0.99759229  0.34699729  0.94585733    -0.48700
C1141       C  0.49714767  0.33794025  0.91386644     0.76300
O1142       O  0.59456129  0.18951042  0.49811069    -0.65300
O1143       O  0.55106640  0.14938137  0.49871506    -0.52500
C1144       C  0.58317806  0.15832178  0.99800501     0.74700
Zr1145     Zr  0.57067312  0.24804710  0.49913479     2.77500
O1146       O  0.61344781  0.24808778  0.95281337    -0.96100
O1147       O  0.61489090  0.24734400  0.54403372    -0.76900
Zr1148     Zr  0.49737705  0.24834221  0.92710153     2.70100
O1149       O  0.54260737  0.24863763  0.88323314    -0.78100
O1150       O  0.95088904  0.24754466  0.88456364    -0.97200
Zr1151     Zr  0.49754446  0.18204829  0.49979821     2.21500
Zr1152     Zr  0.99827865  0.31484222  0.49968618     2.11100
O1153       O  0.53473023  0.28186835  0.96245162    -2.45900
O1154       O  0.53437303  0.21466498  0.96266874    -0.77900
O1155       O  0.53528691  0.28182389  0.53626221    -0.70100
O1156       O  0.96055808  0.21508468  0.96321884    -2.31100
O1157       O  0.53499738  0.21471480  0.53640496    -2.27300
O1158       O  0.96085939  0.28207696  0.96319069    -0.71900
H1159       H  0.94757460  0.29732472  0.55126865     0.80100
H1160       H  0.94626312  0.20021622  0.94910720     0.81200
H1161       H  0.54882818  0.29678223  0.94814711     0.83400
H1162       H  0.54919826  0.19967182  0.55045169     0.81000
H1163       H  0.89188226  0.23995996  0.93533217     0.44100
H1164       H  0.93599599  0.26744244  0.89083935     0.43100
H1165       H  0.56070635  0.23306283  0.89257194     0.42700
H1166       H  0.60821843  0.26897829  0.93890310     0.40700
H1167       H  0.60389966  0.25896223  0.56405996     0.43800
H1168       H  0.55781093  0.22662243  0.61078206     0.38600
H1169       H  0.93388645  0.23658410  0.60588023     0.44700
H1170       H  0.88957388  0.26906040  0.56202760     0.41100
H1171       H  0.63560675  0.25349603  0.96449838     0.46000
H1172       H  0.53303949  0.24446248  0.63748277     0.44800
H1173       H  0.86120314  0.25518640  0.53662437     0.44900
H1174       H  0.96209877  0.25456768  0.86260192     0.45200
O1175       O  0.80555895  0.09590261  0.50033035    -0.73600
O1176       O  0.84622563  0.05263034  0.00009268    -0.52500
C1177       C  0.83696274  0.08480033  0.50039242     0.80100
O1178       O  0.68883458  0.49762681  0.59624290    -0.58200
O1179       O  0.64868104  0.99756715  0.55278685    -0.51300
C1180       C  0.65753945  0.99736933  0.58484053     0.72100
O1181       O  0.80556866  0.49940678  0.59702986    -0.72800
O1182       O  0.84617226  0.49951301  0.55396398    -0.53300
C1183       C  0.83697640  0.99955990  0.58593218     0.78100
O1184       O  0.68889802  0.09516613  0.49742577    -0.57900
O1185       O  0.64880770  0.05164171  0.49841004    -0.51000
C1186       C  0.65763022  0.08370041  0.49762752     0.74700
Zr1187     Zr  0.74737387  0.07120942  0.49890161     2.54700
O1188       O  0.74607416  0.11501340  0.54417301    -0.78500
O1189       O  0.74738587  0.11387221  0.95254265    -0.91900
Zr1190     Zr  0.74737142  0.49917784  0.57231609     2.64700
O1191       O  0.74719265  0.04636262  0.61412088    -0.96900
O1192       O  0.74724561  0.45520244  0.61744299    -0.78900
O1193       O  0.78095438  0.03588473  0.53630685    -0.82300
O1194       O  0.71384315  0.03555969  0.53598699    -2.17000
O1195       O  0.68995044  0.99885039  0.90234287    -0.65700
O1196       O  0.64933566  0.99836037  0.94538570    -0.50200
C1197       C  0.65854739  0.49880165  0.91343960     0.73100
O1198       O  0.80682399  0.40187014  0.49902721    -0.58600
O1199       O  0.84696383  0.44533974  0.49997642    -0.50600
C1200       C  0.83785287  0.41298701  0.99928079     0.74900
O1201       O  0.69004845  0.40110509  0.50055380    -0.70000
O1202       O  0.64945695  0.44416537  0.49991965    -0.48700
C1203       C  0.65843917  0.41232597  0.00034914     0.76300
O1204       O  0.80675069  0.99681344  0.90302291    -0.65300
O1205       O  0.84690407  0.49777463  0.94648101    -0.52500
C1206       C  0.83803789  0.49700455  0.91444023     0.74700
Zr1207     Zr  0.74820159  0.99782628  0.92688387     2.77500
O1208       O  0.74857650  0.45196731  0.88364161    -0.96100
O1209       O  0.74868501  0.04311438  0.88304728    -0.76900
Zr1210     Zr  0.74825274  0.42576302  0.50019736     2.70100
O1211       O  0.74799015  0.38176744  0.95502049    -0.78100
O1212       O  0.74909999  0.38287178  0.54640902    -0.97200
Zr1213     Zr  0.81419863  0.49884512  0.49999746     2.21500
Zr1214     Zr  0.68145013  0.99806359  0.49928887     2.11100
O1215       O  0.71455267  0.46101453  0.96273218    -2.45900
O1216       O  0.78172049  0.46140308  0.96322962    -0.77900
O1217       O  0.71423703  0.03482431  0.96221176    -0.70100
O1218       O  0.78128797  0.46201940  0.53706916    -2.31100
O1219       O  0.78141102  0.03520030  0.96248536    -2.27300
O1220       O  0.71428500  0.46166813  0.53667814    -0.71900
H1221       H  0.69868387  0.04976096  0.54990419     0.80100
H1222       H  0.79618604  0.44796582  0.55140329     0.81200
H1223       H  0.69971072  0.44668624  0.94859960     0.83400
H1224       H  0.79639525  0.04928007  0.94826276     0.81000
H1225       H  0.75395595  0.43360815  0.60540056     0.44100
H1226       H  0.72904476  0.38887052  0.56120607     0.43100
H1227       H  0.76145050  0.39222347  0.93586664     0.42700
H1228       H  0.72828235  0.43737501  0.88930453     0.40700
H1229       H  0.73528196  0.06230791  0.89348337     0.43800
H1230       H  0.76866919  0.10907074  0.93909444     0.38600
H1231       H  0.75889083  0.10444619  0.56369857     0.44700
H1232       H  0.72601956  0.05981731  0.60886352     0.41100
H1233       H  0.74220015  0.46369409  0.86175097     0.46000
H1234       H  0.75207323  0.13614429  0.96431551     0.44800
H1235       H  0.74222004  0.03504297  0.63658185     0.44900
H1236       H  0.74233610  0.36094637  0.53499689     0.45200
C1237       C  0.86532203  0.38798882  0.49897804    -0.11600
C1238       C  0.88738406  0.36590301  0.49890930    -0.13200
C1239       C  0.86391142  0.11034644  0.50065357    -0.11600
C1240       C  0.88598977  0.13240172  0.50070481    -0.13200
C1241       C  0.63146006  0.38685713  0.00055630    -0.11600
C1242       C  0.60938686  0.36482190  0.00054473    -0.13200
C1243       C  0.60848221  0.13116553  0.99738457    -0.11600
C1244       C  0.63042079  0.10895254  0.49727896    -0.13200
C1245       C  0.88727744  0.99634005  0.86708890    -0.11600
C1246       C  0.86521735  0.49647983  0.88915546    -0.13200
C1247       C  0.60958231  0.49931098  0.86583146    -0.11600
C1248       C  0.63162711  0.49915655  0.88789931    -0.13200
C1249       C  0.63035655  0.99711591  0.61016017    -0.11600
C1250       C  0.60831058  0.49730925  0.63226111    -0.13200
C1251       C  0.86394598  0.99959181  0.61146526    -0.11600
C1252       C  0.88607013  0.99941093  0.63347746    -0.13200
C1253       C  0.49873116  0.13152035  0.88869947    -0.11600
C1254       C  0.99884119  0.10941382  0.86666945    -0.13200
C1255       C  0.49709240  0.36497013  0.88842896    -0.11600
C1256       C  0.49727792  0.38702622  0.86635890    -0.13200
C1257       C  0.00019048  0.36524849  0.61084779    -0.11600
C1258       C  0.49999052  0.38733749  0.63287795    -0.13200
C1259       C  0.99652262  0.10979297  0.63320942    -0.11600
C1260       C  0.99659619  0.13176657  0.61103929    -0.13200
O1261       O  0.90052913  0.49900754  0.19180820    -0.73600
O1262       O  0.94355751  0.49840313  0.15117481    -0.52500
C1263       C  0.91160005  0.49888647  0.16039082     0.80100
O1264       O  0.99835754  0.59523682  0.30823442    -0.58200
O1265       O  0.99846025  0.55193507  0.34859200    -0.51300
C1266       C  0.99858893  0.58396136  0.33958313     0.72100
O1267       O  0.99679862  0.59553342  0.19156923    -0.72800
O1268       O  0.49675422  0.55230895  0.15116151    -0.53300
C1269       C  0.99668177  0.58430786  0.16021815     0.78100
O1270       O  0.90112888  0.49660638  0.30860588    -0.57900
O1271       O  0.94460798  0.99742734  0.34875162    -0.51000
C1272       C  0.91255643  0.49677894  0.33989078     0.74700
Zr1273     Zr  0.92506342  0.49766395  0.25009552     2.54700
O1274       O  0.88122217  0.54292998  0.25116940    -0.78500
O1275       O  0.88219692  0.95145086  0.25025372    -0.91900
Zr1276     Zr  0.99701685  0.57101906  0.24983323     2.64700
O1277       O  0.94975828  0.61278419  0.24977835    -0.96900
O1278       O  0.54121648  0.61590071  0.24968028    -0.78900
O1279       O  0.96035439  0.53492410  0.21633685    -0.82300
O1280       O  0.96066806  0.53482595  0.28351000    -2.17000
O1281       O  0.49755745  0.90127602  0.30797574    -0.65700
O1282       O  0.99811222  0.94448947  0.34837673    -0.50200
C1283       C  0.49767944  0.91250270  0.33931787     0.73100
O1284       O  0.59443660  0.99757354  0.19077320    -0.58600
O1285       O  0.55096348  0.49825607  0.15063497    -0.50600
C1286       C  0.58301143  0.99766628  0.15948100     0.74900
O1287       O  0.59521391  0.99939199  0.30746680    -0.70000
O1288       O  0.55213752  0.99889458  0.34804629    -0.48700
C1289       C  0.58409814  0.99928351  0.33886123     0.76300
O1290       O  0.49952192  0.90135899  0.19133074    -0.65300
O1291       O  0.49854579  0.94468053  0.15099208    -0.52500
C1292       C  0.49936170  0.91266673  0.15999785     0.75900
Zr1293     Zr  0.49847258  0.92563202  0.24965422     2.77500
O1294       O  0.54477183  0.88283257  0.24946166    -0.96100
O1295       O  0.95331028  0.88170119  0.24915878    -0.76900
Zr1296     Zr  0.57048284  0.99890127  0.24930665     2.70100
O1297       O  0.61424221  0.95356492  0.24958810    -0.78100
O1298       O  0.61328981  0.54515294  0.24831040    -0.97200
Zr1299     Zr  0.49742714  0.49842240  0.18331696     2.21500
Zr1300     Zr  0.99817999  0.99825952  0.31610443     2.11100
O1301       O  0.53528201  0.96161008  0.28308797    -2.45900
O1302       O  0.53478454  0.96183417  0.21588741    -0.77900
O1303       O  0.96145235  0.96110938  0.28344916    -0.70100
O1304       O  0.53416507  0.53559102  0.21610361    -2.31100
O1305       O  0.96100266  0.96108953  0.21633919    -2.27300
O1306       O  0.53454009  0.53551344  0.28310467    -0.71900
H1307       H  0.94644785  0.54879997  0.29858876     0.80100
H1308       H  0.54821374  0.54986217  0.20112746     0.81200
H1309       H  0.54964700  0.94754299  0.29797035     0.83400
H1310       H  0.94692197  0.94679618  0.20143651     0.81000
H1311       H  0.56251975  0.60393771  0.24194792     0.44100
H1312       H  0.60756926  0.55973179  0.26859813     0.43100
H1313       H  0.60443219  0.93508299  0.23479575     0.42700
H1314       H  0.55917087  0.88855096  0.26986939     0.40700
H1315       H  0.93392147  0.89226503  0.26217893     0.43800
H1316       H  0.88635422  0.93850688  0.22853397     0.38600
H1317       H  0.89148229  0.56213841  0.23764031     0.44700
H1318       H  0.93563878  0.60684535  0.27033133     0.41100
H1319       H  0.53322766  0.86080798  0.25568875     0.46000
H1320       H  0.85984054  0.96340993  0.24646853     0.44800
H1321       H  0.96084807  0.63508602  0.25580641     0.44900
H1322       H  0.63532795  0.53368105  0.25462879     0.45200
O1323       O  0.99704182  0.69016905  0.09681953    -0.73600
O1324       O  0.49768619  0.64975053  0.05361530    -0.52500
C1325       C  0.99717044  0.65881621  0.08560452     0.80100
O1326       O  0.90117618  0.80719499  0.99922388    -0.58200
O1327       O  0.94455662  0.84743396  0.99944197    -0.51300
C1328       C  0.91252072  0.83850731  0.99914388     0.72100
O1329       O  0.90053111  0.69054364  0.00070535    -0.72800
O1330       O  0.94365026  0.65000500  0.00037564    -0.53300
C1331       C  0.91166707  0.65915398  0.00063758     0.78100
O1332       O  0.99978159  0.80681187  0.09679880    -0.57900
O1333       O  0.99912548  0.84715137  0.05347226    -0.51000
C1334       C  0.99973946  0.83814658  0.08549343     0.74700
Zr1335     Zr  0.99851788  0.74850706  0.07247421     2.54700
O1336       O  0.95328533  0.74964260  0.11635278    -0.78500
O1337       O  0.54486458  0.74838528  0.11516522    -0.91900
Zr1338     Zr  0.92521225  0.74872082  0.00051373     2.64700
O1339       O  0.88324271  0.74862510  0.04757672    -0.96900
O1340       O  0.88015589  0.74880300  0.45646068    -0.78900
O1341       O  0.96120804  0.71496989  0.03706616    -0.82300
O1342       O  0.96141929  0.78218532  0.03701994    -2.17000
O1343       O  0.59519709  0.80631642  0.50032236    -0.65700
O1344       O  0.55193081  0.84701418  0.00000308    -0.50200
C1345       C  0.58409394  0.83771863  0.50033514     0.73100
O1346       O  0.49852590  0.69000929  0.40272972    -0.58600
O1347       O  0.49765062  0.64967939  0.44605788    -0.50600
C1348       C  0.49829581  0.65866147  0.41403221     0.74900
O1349       O  0.49713894  0.80661718  0.40258300    -0.70000
O1350       O  0.99772642  0.84699770  0.44581963    -0.48700
C1351       C  0.49732092  0.83795151  0.41382457     0.76300
O1352       O  0.59456880  0.68962568  0.99808442    -0.65300
O1353       O  0.55114813  0.64941351  0.99859524    -0.52500
C1354       C  0.58311511  0.65822976  0.49809131     0.74700
Zr1355     Zr  0.57064259  0.74815980  0.99912651     2.77500
O1356       O  0.61348477  0.74788045  0.45282991    -0.96100
O1357       O  0.61477315  0.74754267  0.04410572    -0.76900
Zr1358     Zr  0.49740283  0.74837437  0.42708383     2.70100
O1359       O  0.54269358  0.74875990  0.38328710    -0.78100
O1360       O  0.95085860  0.74779949  0.38459025    -0.97200
Zr1361     Zr  0.49762161  0.68203644  0.99982701     2.21500
Zr1362     Zr  0.99815389  0.81481973  0.99970373     2.11100
O1363       O  0.53480333  0.78181459  0.46246473    -2.45900
O1364       O  0.53435851  0.71461858  0.46263946    -0.77900
O1365       O  0.53522693  0.78187989  0.03628035    -0.70100
O1366       O  0.96052472  0.71516886  0.46318839    -2.31100
O1367       O  0.53501556  0.71479516  0.03640498    -2.27300
O1368       O  0.96092913  0.78219354  0.46314826    -0.71900
H1369       H  0.94747143  0.79724403  0.05129066     0.80100
H1370       H  0.94620077  0.70033068  0.44906783     0.81200
H1371       H  0.54892885  0.79670841  0.44816899     0.83400
H1372       H  0.54924996  0.69977952  0.05044486     0.81000
H1373       H  0.89215234  0.74166872  0.43497257     0.44100
H1374       H  0.93627149  0.76799135  0.39064443     0.43100
H1375       H  0.56060025  0.73285519  0.39243849     0.42700
H1376       H  0.60807833  0.76858739  0.43871534     0.40700
H1377       H  0.60398506  0.75980837  0.06385509     0.43800
H1378       H  0.55796499  0.72682469  0.11065379     0.38600
H1379       H  0.93406954  0.73611939  0.10613191     0.44700
H1380       H  0.88964855  0.76866137  0.06219884     0.41100
H1381       H  0.63559606  0.75359184  0.46446115     0.46000
H1382       H  0.53301328  0.74418153  0.13750505     0.44800
H1383       H  0.86116258  0.75552360  0.03653478     0.44900
H1384       H  0.96215152  0.75440489  0.36254210     0.45200
O1385       O  0.80566933  0.59574341  0.00033516    -0.73600
O1386       O  0.84616039  0.55283465  0.50009715    -0.52500
C1387       C  0.83706405  0.58460945  0.00039360     0.80100
O1388       O  0.68880445  0.99762925  0.09624178    -0.58200
O1389       O  0.64865781  0.49763114  0.05278886    -0.51300
C1390       C  0.65751721  0.49739951  0.08484370     0.72100
O1391       O  0.80546798  0.99914944  0.09704092    -0.72800
O1392       O  0.84609577  0.99929003  0.05399720    -0.53300
C1393       C  0.83688684  0.49929905  0.08595718     0.78100
O1394       O  0.68902652  0.59523543  0.99745431    -0.57900
O1395       O  0.64885945  0.55178088  0.99833444    -0.51000
C1396       C  0.65773758  0.58382610  0.99759734     0.74700
Zr1397     Zr  0.74744403  0.57113076  0.99889418     2.54700
O1398       O  0.74615600  0.61488135  0.04420776    -0.78500
O1399       O  0.74738455  0.61387967  0.45247421    -0.91900
Zr1400     Zr  0.74730864  0.99909020  0.07226318     2.64700
O1401       O  0.74709537  0.54623630  0.11410858    -0.96900
O1402       O  0.74723853  0.95508102  0.11734415    -0.78900
O1403       O  0.78098112  0.53575336  0.03628978    -0.82300
O1404       O  0.71383708  0.53553846  0.03595656    -2.17000
O1405       O  0.68996018  0.49895520  0.40234769    -0.65700
O1406       O  0.64938213  0.49824892  0.44541912    -0.50200
C1407       C  0.65856694  0.99880772  0.41345878     0.73100
O1408       O  0.80654408  0.90161076  0.99900971    -0.58600
O1409       O  0.84674563  0.94502877  0.99994686    -0.50600
C1410       C  0.83811713  0.91328653  0.49930660     0.74900
O1411       O  0.68981547  0.90116206  0.00051277    -0.70000
O1412       O  0.64929236  0.94429173  0.99986484    -0.48700
C1413       C  0.65865078  0.91221221  0.50038936     0.76300
O1414       O  0.80671582  0.49698337  0.40297807    -0.65300
O1415       O  0.84685880  0.99791676  0.44645219    -0.52500
C1416       C  0.83800179  0.99716794  0.41440691     0.74700
Zr1417     Zr  0.74820358  0.49788965  0.42690533     2.77500
O1418       O  0.74855826  0.95190947  0.38379255    -0.96100
O1419       O  0.74865800  0.54319229  0.38308633    -0.76900
Zr1420     Zr  0.74806877  0.92570191  0.00015759     2.70100
O1421       O  0.74805437  0.88188566  0.45500641    -0.78100
O1422       O  0.74882183  0.88300688  0.04654823    -0.97200
Zr1423     Zr  0.81418191  0.99867442  0.99998288     2.21500
Zr1424     Zr  0.68138662  0.49812178  0.99925115     2.11100
O1425       O  0.71465673  0.96101023  0.46277068    -2.45900
O1426       O  0.78179998  0.96152632  0.46324818    -0.77900
O1427       O  0.71420733  0.53483845  0.46224486    -0.70100
O1428       O  0.78117399  0.96190411  0.03700513    -2.31100
O1429       O  0.78137177  0.53531069  0.46249927    -2.27300
O1430       O  0.71413833  0.96164994  0.03663107    -0.71900
H1431       H  0.69869584  0.54975895  0.04987573     0.80100
H1432       H  0.79603619  0.94782063  0.05133496     0.81200
H1433       H  0.69982796  0.94666050  0.44864502     0.83400
H1434       H  0.79633272  0.54940535  0.44827232     0.81000
H1435       H  0.75376895  0.93346639  0.10524144     0.44100
H1436       H  0.72871540  0.88904751  0.06125844     0.43100
H1437       H  0.76235206  0.89192830  0.43624282     0.42700
H1438       H  0.72819167  0.93740619  0.38942470     0.40700
H1439       H  0.73545728  0.56246519  0.39363398     0.43800
H1440       H  0.76909219  0.60958954  0.43953954     0.38600
H1441       H  0.75953767  0.60455510  0.06348104     0.44700
H1442       H  0.72629911  0.56008963  0.10840136     0.41100
H1443       H  0.74230075  0.96359935  0.36184837     0.46000
H1444       H  0.75124232  0.63627552  0.46431358     0.44800
H1445       H  0.74141383  0.53499511  0.13644069     0.44900
H1446       H  0.74211399  0.86102783  0.03520780     0.45200
C1447       C  0.86503527  0.88766763  0.99895159    -0.11600
C1448       C  0.88715054  0.86563652  0.99888888    -0.13200
C1449       C  0.86404227  0.61013443  0.00065991    -0.11600
C1450       C  0.88613464  0.63218115  0.00071901    -0.13200
C1451       C  0.63170607  0.88669250  0.50059677    -0.11600
C1452       C  0.60963184  0.86464974  0.50059855    -0.13200
C1453       C  0.60836847  0.63102575  0.49747927    -0.11600
C1454       C  0.63056202  0.60911802  0.99721619    -0.13200
C1455       C  0.88726782  0.49649278  0.36707431    -0.11600
C1456       C  0.86519353  0.99665021  0.38913125    -0.13200
C1457       C  0.60961041  0.99937867  0.36582101    -0.11600
C1458       C  0.63162783  0.99919939  0.38792407    -0.13200
C1459       C  0.63033638  0.49709294  0.11016382    -0.11600
C1460       C  0.60828781  0.99721095  0.13226297    -0.13200
C1461       C  0.86384646  0.49932241  0.11150100    -0.11600
C1462       C  0.88600324  0.49919520  0.13348154    -0.13200
C1463       C  0.49866919  0.63152797  0.38866219    -0.11600
C1464       C  0.99879500  0.60939668  0.36665291    -0.13200
C1465       C  0.49726046  0.86499295  0.38839991    -0.11600
C1466       C  0.49739595  0.88706444  0.36634611    -0.13200
C1467       C  0.00011555  0.86522314  0.11087592    -0.11600
C1468       C  0.49996187  0.88728981  0.13292262    -0.13200
C1469       C  0.99665910  0.60974738  0.13316466    -0.11600
C1470       C  0.99682151  0.63178724  0.11106509    -0.13200
O1471       O  0.90055571  0.49899716  0.69182121    -0.73600
O1472       O  0.94360045  0.49861601  0.65120158    -0.52500
C1473       C  0.91164249  0.49901864  0.66040695     0.80100
O1474       O  0.99836990  0.59528159  0.80824880    -0.58200
O1475       O  0.99847949  0.55196195  0.84858920    -0.51300
C1476       C  0.99861326  0.58399312  0.83959061     0.72100
O1477       O  0.99678151  0.59559812  0.69164143    -0.72800
O1478       O  0.49678420  0.55237542  0.65123222    -0.53300
C1479       C  0.99665799  0.58437295  0.66028707     0.78100
O1480       O  0.90114448  0.49646043  0.80862188    -0.57900
O1481       O  0.94460773  0.99739208  0.84878167    -0.51000
C1482       C  0.91256323  0.49666833  0.83990921     0.74700
Zr1483     Zr  0.92508092  0.49764990  0.75011911     2.54700
O1484       O  0.88132994  0.54299598  0.75125206    -0.78500
O1485       O  0.88211735  0.95152905  0.75025063    -0.91900
Zr1486     Zr  0.99701501  0.57101017  0.74988377     2.64700
O1487       O  0.94961586  0.61261041  0.74975373    -0.96900
O1488       O  0.54115798  0.61594043  0.74981055    -0.78900
O1489       O  0.96037731  0.53491506  0.71638003    -0.82300
O1490       O  0.96066822  0.53480636  0.78356236    -2.17000
O1491       O  0.49746962  0.90124950  0.80798039    -0.65700
O1492       O  0.99812223  0.94445040  0.84839724    -0.50200
C1493       C  0.49762253  0.91246657  0.83932917     0.73100
O1494       O  0.59442895  0.99770558  0.69076705    -0.58600
O1495       O  0.55097229  0.49832921  0.65061284    -0.50600
C1496       C  0.58301811  0.99778326  0.65946822     0.74900
O1497       O  0.59513821  0.99932727  0.80750230    -0.70000
O1498       O  0.55209602  0.99886933  0.84812396    -0.48700
C1499       C  0.58404601  0.99922694  0.83890596     0.76300
O1500       O  0.49954400  0.90141039  0.69129184    -0.65300
O1501       O  0.49851934  0.94473791  0.65095780    -0.52500
C1502       C  0.49936195  0.91272092  0.65995715     0.75900
Zr1503     Zr  0.49847238  0.92562616  0.74965235     2.77500
O1504       O  0.54481332  0.88287612  0.74957353    -0.96100
O1505       O  0.95331804  0.88168629  0.74905501    -0.76900
Zr1506     Zr  0.57046832  0.99888453  0.74931258     2.70100
O1507       O  0.61408783  0.95341259  0.74958744    -0.78100
O1508       O  0.61335735  0.54505463  0.74821931    -0.97200
Zr1509     Zr  0.49745672  0.49845851  0.68332993     2.21500
Zr1510     Zr  0.99817617  0.99824014  0.81614715     2.11100
O1511       O  0.53526209  0.96160487  0.78310023    -2.45900
O1512       O  0.53478743  0.96182715  0.71587497    -0.77900
O1513       O  0.96146203  0.96109062  0.78346941    -0.70100
O1514       O  0.53417554  0.53561630  0.71613454    -2.31100
O1515       O  0.96103079  0.96111216  0.71634230    -2.27300
O1516       O  0.53453955  0.53548503  0.78314301    -0.71900
H1517       H  0.94644321  0.54876930  0.79864728     0.80100
H1518       H  0.54822459  0.54990311  0.70117297     0.81200
H1519       H  0.54962379  0.94753210  0.79797971     0.83400
H1520       H  0.94694874  0.94683008  0.70143089     0.81000
H1521       H  0.56254679  0.60393757  0.74238235     0.44100
H1522       H  0.60768195  0.55966904  0.76849337     0.43100
H1523       H  0.60441517  0.93514306  0.73444442     0.42700
H1524       H  0.55928725  0.88875364  0.76988281     0.40700
H1525       H  0.93365372  0.89250763  0.76143452     0.43800
H1526       H  0.88624570  0.93859041  0.72852235     0.38600
H1527       H  0.89127715  0.56188314  0.73705268     0.44700
H1528       H  0.93540684  0.60653967  0.77020584     0.41100
H1529       H  0.53331726  0.86088491  0.75600372     0.46000
H1530       H  0.85978685  0.96353963  0.74647517     0.44800
H1531       H  0.96059549  0.63492580  0.75592916     0.44900
H1532       H  0.63538099  0.53355054  0.75452744     0.45200
O1533       O  0.99695751  0.69012977  0.59674084    -0.73600
O1534       O  0.49738323  0.64969197  0.55355402    -0.52500
C1535       C  0.99694982  0.65877009  0.58554303     0.80100
O1536       O  0.90127220  0.80741377  0.49917603    -0.58200
O1537       O  0.94474019  0.84755991  0.49949208    -0.51300
C1538       C  0.91268495  0.83870528  0.49915195     0.72100
O1539       O  0.90045647  0.69074765  0.50063837    -0.72800
O1540       O  0.94351473  0.65013833  0.50037779    -0.53300
C1541       C  0.91154856  0.65934115  0.50061123     0.78100
O1542       O  0.99992527  0.80682033  0.59676044    -0.57900
O1543       O  0.99919808  0.84717409  0.55344632    -0.51000
C1544       C  0.99984594  0.83816294  0.58546419     0.74700
Zr1545     Zr  0.99853691  0.74849587  0.57244400     2.54700
O1546       O  0.95334897  0.74953575  0.61636788    -0.78500
O1547       O  0.54491343  0.74834505  0.61509791    -0.91900
Zr1548     Zr  0.92522559  0.74888696  0.50046512     2.64700
O1549       O  0.88341967  0.74875286  0.54767262    -0.96900
O1550       O  0.88020311  0.74857372  0.95644978    -0.78900
O1551       O  0.96117543  0.71506713  0.53699781    -0.82300
O1552       O  0.96149765  0.78225073  0.53699179    -2.17000
O1553       O  0.59505199  0.80647683  0.00021496    -0.65700
O1554       O  0.55214001  0.84692160  0.49997400    -0.50200
C1555       C  0.58389613  0.83785954  0.00028652     0.73100
O1556       O  0.49853981  0.68998612  0.90276664    -0.58600
O1557       O  0.49776833  0.64966009  0.94609690    -0.50600
C1558       C  0.49836385  0.65864290  0.91407157     0.74900
O1559       O  0.49695071  0.80660183  0.90263531    -0.70000
O1560       O  0.99759197  0.84699742  0.94585733    -0.48700
C1561       C  0.49714735  0.83794052  0.91386641     0.76300
O1562       O  0.59456159  0.68951062  0.49811049    -0.65300
O1563       O  0.55106682  0.64938146  0.49871481    -0.52500
C1564       C  0.58317857  0.65832206  0.99800499     0.74700
Zr1565     Zr  0.57067309  0.74804728  0.49913419     2.77500
O1566       O  0.61344710  0.74808794  0.95281231    -0.96100
O1567       O  0.61489164  0.74734514  0.54403239    -0.76900
Zr1568     Zr  0.49737687  0.74834251  0.92710125     2.70100
O1569       O  0.54260714  0.74863808  0.88323282    -0.78100
O1570       O  0.95088874  0.74754511  0.88456337    -0.97200
Zr1571     Zr  0.49754484  0.68204826  0.49979772     2.21500
Zr1572     Zr  0.99827832  0.81484229  0.49968611     2.11100
O1573       O  0.53472984  0.78186862  0.96245153    -2.45900
O1574       O  0.53437311  0.71466511  0.96266813    -0.77900
O1575       O  0.53528675  0.78182383  0.53626180    -0.70100
O1576       O  0.96055813  0.71508477  0.96321865    -2.31100
O1577       O  0.53499758  0.71471494  0.53640448    -2.27300
O1578       O  0.96085896  0.78207711  0.96319051    -0.71900
H1579       H  0.94757444  0.79732451  0.55126872     0.80100
H1580       H  0.94626312  0.70021630  0.94910688     0.81200
H1581       H  0.54882760  0.79678260  0.94814712     0.83400
H1582       H  0.54919859  0.69967205  0.55045116     0.81000
H1583       H  0.89188161  0.73995786  0.93533261     0.44100
H1584       H  0.93599626  0.76744348  0.89083851     0.43100
H1585       H  0.56070510  0.73306140  0.89257047     0.42700
H1586       H  0.60821902  0.76897983  0.93890349     0.40700
H1587       H  0.60389990  0.75896167  0.56405935     0.43800
H1588       H  0.55781211  0.72662370  0.61078068     0.38600
H1589       H  0.93388640  0.73658284  0.60587898     0.44700
H1590       H  0.88957359  0.76905951  0.56202761     0.41100
H1591       H  0.63560652  0.75349376  0.96449740     0.46000
H1592       H  0.53303897  0.74445963  0.63748258     0.44800
H1593       H  0.86120321  0.75518464  0.53662440     0.44900
H1594       H  0.96209871  0.75456715  0.86260144     0.45200
O1595       O  0.80555937  0.59590293  0.50032927    -0.73600
O1596       O  0.84622595  0.55263074  0.00009085    -0.52500
C1597       C  0.83696314  0.58480062  0.50039075     0.80100
O1598       O  0.68883137  0.99762687  0.59624116    -0.58200
O1599       O  0.64868340  0.49756682  0.55278936    -0.51300
C1600       C  0.65754247  0.49736901  0.58484284     0.72100
O1601       O  0.80556543  0.99940666  0.59703126    -0.72800
O1602       O  0.84617004  0.99951265  0.55396630    -0.53300
C1603       C  0.83697939  0.49956003  0.58593008     0.78100
O1604       O  0.68889822  0.59516606  0.49742603    -0.57900
O1605       O  0.64880800  0.55164159  0.49841186    -0.51000
C1606       C  0.65763044  0.58370031  0.49762854     0.74700
Zr1607     Zr  0.74737424  0.57120976  0.49890146     2.54700
O1608       O  0.74607518  0.61501346  0.54417321    -0.78500
O1609       O  0.74738527  0.61387290  0.95254310    -0.91900
Zr1610     Zr  0.74736894  0.99917729  0.57231592     2.64700
O1611       O  0.74719649  0.54636310  0.61412113    -0.96900
O1612       O  0.74724221  0.95520176  0.61744270    -0.78900
O1613       O  0.78095571  0.53588521  0.53630594    -0.82300
O1614       O  0.71384453  0.53556009  0.53598782    -2.17000
O1615       O  0.68994880  0.49885022  0.90234442    -0.65700
O1616       O  0.64933505  0.49836041  0.94538821    -0.50200
C1617       C  0.65854875  0.99880174  0.91343731     0.73100
O1618       O  0.80682321  0.90186987  0.49902699    -0.58600
O1619       O  0.84696313  0.94533936  0.49997776    -0.50600
C1620       C  0.83785213  0.91298665  0.99928146     0.74900
O1621       O  0.69004760  0.90110520  0.50055300    -0.70000
O1622       O  0.64945611  0.94416547  0.49991759    -0.48700
C1623       C  0.65843832  0.91232615  0.00034766     0.76300
O1624       O  0.80674913  0.49681349  0.90302163    -0.65300
O1625       O  0.84690469  0.99777457  0.94648316    -0.52500
C1626       C  0.83803919  0.99700458  0.91444219     0.74700
Zr1627     Zr  0.74820056  0.49782630  0.92688396     2.77500
O1628       O  0.74857827  0.95196744  0.88364137    -0.96100
O1629       O  0.74868294  0.54311428  0.88304720    -0.76900
Zr1630     Zr  0.74825195  0.92576280  0.50019691     2.70100
O1631       O  0.74798912  0.88176763  0.95501964    -0.78100
O1632       O  0.74909863  0.88287103  0.54640809    -0.97200
Zr1633     Zr  0.81419800  0.99884478  0.49999882     2.21500
Zr1634     Zr  0.68145087  0.49806368  0.49929050     2.11100
O1635       O  0.71455277  0.96101466  0.96273132    -2.45900
O1636       O  0.78172075  0.96140282  0.96323004    -0.77900
O1637       O  0.71423674  0.53482439  0.96221248    -0.70100
O1638       O  0.78128637  0.96201899  0.53706964    -2.31100
O1639       O  0.78141067  0.53520050  0.96248468    -2.27300
O1640       O  0.71428336  0.96166778  0.53667702    -0.71900
H1641       H  0.69868532  0.54976148  0.54990538     0.80100
H1642       H  0.79618404  0.94796542  0.55140405     0.81200
H1643       H  0.69971124  0.94668653  0.94859852     0.83400
H1644       H  0.79639454  0.54928023  0.94826184     0.81000
H1645       H  0.75394372  0.93360571  0.60539856     0.44100
H1646       H  0.72904132  0.88886765  0.56120317     0.43100
H1647       H  0.76144986  0.89222354  0.93586604     0.42700
H1648       H  0.72828478  0.93737441  0.88930464     0.40700
H1649       H  0.73527849  0.56230711  0.89348283     0.43800
H1650       H  0.76866922  0.60907272  0.93909546     0.38600
H1651       H  0.75889277  0.60444647  0.56369826     0.44700
H1652       H  0.72602223  0.55981662  0.60886570     0.41100
H1653       H  0.74220105  0.96369411  0.86175088     0.46000
H1654       H  0.75207112  0.63614510  0.96431635     0.44800
H1655       H  0.74222649  0.53504309  0.63658254     0.44900
H1656       H  0.74233797  0.86094515  0.53499486     0.45200
C1657       C  0.86532128  0.88798841  0.49897851    -0.11600
C1658       C  0.88738340  0.86590264  0.49890962    -0.13200
C1659       C  0.86391183  0.61034661  0.50065195    -0.11600
C1660       C  0.88599034  0.63240165  0.50070355    -0.13200
C1661       C  0.63145928  0.88685735  0.00055497    -0.11600
C1662       C  0.60938626  0.86482199  0.00054373    -0.13200
C1663       C  0.60848271  0.63116570  0.99738490    -0.11600
C1664       C  0.63042101  0.60895247  0.49727972    -0.13200
C1665       C  0.88727562  0.49633988  0.86708635    -0.11600
C1666       C  0.86521916  0.99647998  0.88915797    -0.13200
C1667       C  0.60958415  0.99931113  0.86582866    -0.11600
C1668       C  0.63162903  0.99915671  0.88789643    -0.13200
C1669       C  0.63036002  0.49711529  0.61016284    -0.11600
C1670       C  0.60830712  0.99730996  0.63225852    -0.13200
C1671       C  0.86394956  0.49959170  0.61146259    -0.11600
C1672       C  0.88607381  0.49941071  0.63347474    -0.13200
C1673       C  0.49873106  0.63152086  0.88869874    -0.11600
C1674       C  0.99884071  0.60941412  0.86666896    -0.13200
C1675       C  0.49709235  0.86497049  0.88842905    -0.11600
C1676       C  0.49727813  0.88702667  0.86635909    -0.13200
C1677       C  0.00018887  0.86524822  0.61084808    -0.11600
C1678       C  0.49998839  0.88733742  0.63287809    -0.13200
C1679       C  0.99652563  0.60979268  0.63320916    -0.11600
C1680       C  0.99659849  0.63176623  0.61103895    -0.13200
loop_ 
_geom_bond_atom_site_label_1 
_geom_bond_atom_site_label_2 
_geom_bond_distance 
_geom_bond_site_symmetry_2 
_ccdc_geom_bond_type 
O1          Zr13   2.444       .  S
O1            C3   1.287       .  A
O2         Zr879   2.423       .  S
O2            C3   1.285       .  A
C3          C202   1.435       .  S
O4          Zr16   2.443       .  S
O4            C6   1.287       .  A
O5         Zr460   2.424   1_545  S
O5            C6   1.285       .  A
C6          C204   1.435       .  S
O7          Zr16   2.441       .  S
O7            C9   1.287       .  A
O8          Zr39   2.423   1_545  S
O8          C849   1.285       .  A
C9          O848   1.285       .  A
C9          C209   1.434       .  S
O10         Zr13   2.442       .  S
O10          C12   1.287       .  A
O11         Zr40   2.423       .  S
O11         C432   1.285       .  A
C12         O431   1.285       .  A
C12         C195   1.434       .  S
Zr13         O14   2.434   1_565  S
Zr13        O435   2.435       .  S
Zr13         O19   2.372   1_565  S
Zr13         O20   2.371   1_565  S
Zr13        O463   2.372       .  S
Zr13        O465   2.372       .  S
O14          H57   0.990       .  S
O15        Zr433   2.435       .  S
O15          H56   0.990       .  S
O15          H60   0.990       .  S
Zr16         O17   2.436       .  S
Zr16        O858   2.434       .  S
Zr16         O20   2.370       .  S
Zr16         O19   2.372       .  S
Zr16        O884   2.373       .  S
Zr16        O886   2.373       .  S
O17          H58   0.990       .  S
O17          H61   0.990       .  S
O18        Zr856   2.434   1_455  S
O18          H51   0.990       .  S
O19        Zr879   2.380   1_545  S
O20        Zr460   2.383   1_545  S
O20          H47   0.966       .  S
O21         Zr33   2.441       .  S
O21          C23   1.286       .  A
O22         Zr40   2.422       .  S
O22         C863   1.285       .  A
C23         O862   1.285       .  A
C23         C206   1.433       .  S
O24         Zr36   2.443       .  S
O24          C26   1.287       .  A
O25         Zr39   2.423   1_455  S
O25         C446   1.285       .  A
C26         O445   1.285       .  A
C26         C200   1.435       .  S
O27         Zr36   2.442       .  S
O27          C29   1.286       .  A
O28        Zr880   2.423   1_455  S
O28          C29   1.285       .  A
C29         C197   1.434       .  S
O30         Zr33   2.441       .  S
O30          C32   1.287       .  A
O31        Zr459   2.424       .  S
O31          C32   1.285       .  A
C32         C208   1.434       .  S
Zr33         O34   2.435   1_655  S
Zr33        O875   2.434       .  S
Zr33         O41   2.372   1_655  S
Zr33         O42   2.371   1_655  S
Zr33        O885   2.372       .  S
Zr33        O883   2.372       .  S
O34          H54   0.990       .  S
O34          H59   0.990       .  S
O35        Zr873   2.434       .  S
O35          H55   0.990       .  S
Zr36         O37   2.434       .  S
Zr36        O458   2.435       .  S
Zr36         O42   2.371       .  S
Zr36         O41   2.372       .  S
Zr36        O466   2.373       .  S
Zr36        O464   2.371       .  S
O37          H53   0.990       .  S
O38        Zr456   2.435   1_545  S
O38          H52   0.990       .  S
O38          H62   0.990       .  S
Zr39        O842   2.423       .  S
Zr39        O451   2.424       .  S
Zr39         O44   2.384   1_665  S
Zr39        O859   2.380   1_565  S
Zr39        O462   2.379   1_655  S
Zr39       O1305   2.384       .  S
Zr40        O425   2.424       .  S
Zr40        O868   2.423       .  S
Zr40         O43   2.381       .  S
Zr40        O440   2.383       .  S
Zr40        O881   2.384       .  S
Zr40       O1306   2.380       .  S
O41        Zr880   2.384   1_455  S
O41          H49   0.966       .  S
O42        Zr459   2.379   1_455  S
O43        Zr433   2.372       .  S
O43        Zr873   2.372       .  S
O44        Zr856   2.373   1_455  S
O44        Zr456   2.371   1_545  S
O44          H48   0.966       .  S
O45        Zr433   2.372       .  S
O45        Zr873   2.372       .  S
O45       Zr1299   2.384       .  S
O45          H50   0.966       .  S
O46        Zr856   2.373   1_455  S
O46        Zr456   2.373   1_545  S
O46       Zr1300   2.380   1_445  S
O63         Zr75   2.442       .  S
O63          C65   1.287       .  A
O64        Zr101   2.423   1_554  S
O64         C905   1.285       .  A
C65         O904   1.285       .  A
C65         C210   1.434       .  S
O66         Zr78   2.442   1_556  S
O66          C68   1.287       .  A
O67        Zr102   2.423       .  S
O67          C68   1.285       .  A
C68         C188   1.435       .  S
O69         Zr78   2.441       .  S
O69          C71   1.287       .  A
O70        Zr941   2.425   1_554  S
O70          C71   1.285       .  A
C71         C190   1.435       .  S
O72         Zr75   2.441       .  S
O72          C74   1.287       .  A
O73        Zr102   2.425   1_554  S
O73          C74   1.285       .  A
C74         C207   1.434       .  S
Zr75         O76   2.434       .  S
Zr75        O917   2.434       .  S
Zr75         O81   2.373       .  S
Zr75         O82   2.371       .  S
Zr75        O945   2.372       .  S
Zr75        O947   2.372       .  S
O76         H119   0.990       .  S
O77        Zr915   2.434   1_455  S
O77         H118   0.990       .  S
O77         H122   0.990       .  S
Zr78         O79   2.436       .  S
Zr78        O290   2.433   1_554  S
Zr78         O82   2.371       .  S
Zr78         O81   2.372       .  S
Zr78        O316   2.372   1_554  S
Zr78        O318   2.373   1_554  S
O79         H120   0.990       .  S
O79         H123   0.990       .  S
O80        Zr288   2.434       .  S
O80         H113   0.990       .  S
O81        Zr941   2.381   1_554  S
O82        Zr102   2.383   1_554  S
O82         H109   0.966       .  S
O83        Zr305   2.443       .  S
O83          C85   1.287       .  A
O84        Zr942   2.421   1_454  S
O84         C295   1.284       .  A
C85         O294   1.285       .  A
C85         C192   1.434       .  S
O86         Zr98   2.444       .  S
O86          C88   1.287       .  A
O87        Zr311   2.424       .  S
O87          C88   1.285       .  A
C88         C203   1.435       .  S
O89         Zr98   2.440       .  S
O89          C91   1.286       .  A
O90        Zr312   2.423       .  S
O90         C931   1.285       .  A
C91         O930   1.285       .  A
C91         C205   1.433       .  S
O92         Zr95   2.443       .  S
O92         C304   1.287       .  A
O93        Zr101   2.422   1_455  S
O93         C304   1.285       .  A
C94         O302   1.287       .  A
C94         O303   1.285       .  A
C94         C193   1.434       .  S
Zr95        O293   2.443   1_556  S
Zr95         O97   2.435   1_556  S
Zr95        O306   2.436       .  S
Zr95        O107   2.372   1_556  S
Zr95        O105   2.373   1_556  S
Zr95        O313   2.372       .  S
Zr95        O314   2.372       .  S
O96        Zr305   2.436       .  S
O96         H116   0.990       .  S
O96         H121   0.990       .  S
O97         H117   0.990       .  S
Zr98         O99   2.434   1_655  S
Zr98        O940   2.435       .  S
Zr98        O104   2.371   1_655  S
Zr98        O103   2.372   1_655  S
Zr98        O948   2.373       .  S
Zr98        O946   2.370       .  S
O99         H115   0.990       .  S
O100       Zr938   2.435       .  S
O100        H114   0.990       .  S
O100        H124   0.990       .  S
Zr101       O910   2.425   1_556  S
Zr101       O297   2.424       .  S
Zr101       O107   2.385   1_656  S
Zr101       O921   2.381   1_556  S
Zr101       O314   2.380   1_655  S
Zr101      O1156   2.383       .  S
Zr102       O924   2.421   1_556  S
Zr102       O300   2.423       .  S
Zr102      O1153   2.385       .  S
Zr102       O945   2.380   1_556  S
Zr102       O318   2.381       .  S
O103       Zr305   2.372       .  S
O103      Zr1152   2.385   1_455  S
O103        H111   0.966       .  S
O104       Zr305   2.372       .  S
O104       Zr311   2.380   1_455  S
O105       Zr915   2.372   1_455  S
O105       Zr942   2.380   1_454  S
O106       Zr288   2.373       .  S
O106       Zr938   2.370       .  S
O106      Zr1151   2.383       .  S
O106        H110   0.966       .  S
O107       Zr915   2.372   1_455  S
O107        H112   0.966       .  S
O108       Zr288   2.373       .  S
O108       Zr938   2.373       .  S
O108       Zr312   2.381       .  S
O125       Zr137   2.443   1_554  S
O125        C127   1.287       .  A
O126       Zr793   2.424   1_545  S
O126        C337   1.285       .  A
C127        O336   1.285       .  A
C127        C189   1.435       .  S
O128       Zr140   2.443       .  S
O128        C550   1.287       .  A
O129       Zr164   2.424   1_554  S
O129        C130   1.285       .  A
C130        O548   1.287       .  A
C130        C199   1.435       .  S
O131       Zr140   2.442       .  S
O131        C553   1.287       .  A
O132       Zr163   2.424   1_554  S
O132        C553   1.285       .  A
C133        O551   1.287       .  A
C133        O552   1.285       .  A
C133        C201   1.435       .  S
O134       Zr137   2.442       .  S
O134        C136   1.287       .  A
O135       Zr164   2.424   1_545  S
O135        C136   1.285       .  A
C136        C194   1.434       .  S
Zr137       O138   2.434   1_556  S
Zr137       O349   2.435       .  S
Zr137       O143   2.373   1_556  S
Zr137       O144   2.371   1_556  S
Zr137       O377   2.372       .  S
Zr137       O379   2.372       .  S
O138        H181   0.990       .  S
O139       Zr347   2.435       .  S
O139        H180   0.990       .  S
O139        H184   0.990       .  S
Zr140       O142   2.433       .  S
Zr140       O561   2.436       .  S
Zr140       O168   2.373       .  S
Zr140       O170   2.373       .  S
Zr140       O564   2.370       .  S
Zr140       O563   2.372       .  S
O141       Zr560   2.436   1_545  S
O141        H182   0.990       .  S
O141        H185   0.990       .  S
O142        H175   0.990       .  S
O143       Zr560   2.372   1_545  S
O143       Zr583   2.380   1_544  S
O144       Zr164   2.382   1_544  S
O144       Zr560   2.370   1_545  S
O144        H171   0.966       .  S
O145       Zr157   2.442       .  S
O145        C567   1.286       .  A
O146       Zr374   2.422       .  S
O146        C567   1.285       .  A
C147        O565   1.286       .  A
C147        O566   1.285       .  A
C147        C198   1.434       .  S
O148       Zr160   2.443   1_556  S
O148        C360   1.287       .  A
O149       Zr163   2.424       .  S
O149        C360   1.285       .  A
C150        O358   1.287       .  A
C150        O359   1.285       .  A
C150        C397   1.435       .  S
O151       Zr160   2.442       .  S
O151        C363   1.286       .  A
O152       Zr584   2.421       .  S
O152        C363   1.284   1_556  A
C153        O361   1.286       .  A
C153        O362   1.284       .  A
C153        C191   1.434       .  S
O154       Zr157   2.442       .  S
O154        C576   1.287       .  A
O155       Zr373   2.423       .  S
O155        C156   1.285       .  A
C156        O574   1.287       .  A
C156        C196   1.434       .  S
Zr157       O159   2.434   1_565  S
Zr157       O578   2.436       .  S
Zr157       O169   2.372   1_565  S
Zr157       O167   2.372   1_565  S
Zr157       O585   2.372       .  S
Zr157       O586   2.372       .  S
O158       Zr577   2.436       .  S
O158        H178   0.990       .  S
O158        H183   0.990       .  S
O159        H179   0.990       .  S
Zr160       O162   2.435       .  S
Zr160       O371   2.434   1_554  S
Zr160       O170   2.373       .  S
Zr160       O168   2.371       .  S
Zr160       O376   2.372   1_554  S
Zr160       O375   2.372   1_554  S
O161       Zr370   2.434       .  S
O161        H177   0.990       .  S
O162        H176   0.990       .  S
O162        H186   0.990       .  S
Zr163       O756   2.424   1_556  S
Zr163       O365   2.423       .  S
Zr163       O168   2.385   1_556  S
Zr163       O563   2.380   1_556  S
Zr163       O376   2.380       .  S
Zr163       O799   2.385       .  S
Zr164       O356   2.421       .  S
Zr164       O572   2.421       .  S
Zr164       O795   2.385       .  S
Zr164       O377   2.380   1_565  S
Zr164       O590   2.381   1_556  S
O165       Zr577   2.372       .  S
O165       Zr370   2.372       .  S
O165       Zr794   2.384       .  S
O165        H173   0.966       .  S
O166       Zr577   2.372       .  S
O166       Zr370   2.371       .  S
O166       Zr373   2.380       .  S
O167       Zr347   2.372       .  S
O167       Zr374   2.380   1_545  S
O168        H172   0.965       .  S
O169       Zr347   2.372       .  S
O169       Zr793   2.385   1_545  S
O169        H174   0.965       .  S
O170       Zr584   2.381   1_554  S
C187        C360   1.435       .  S
C187        C188   1.206       .  T
C189        C190   1.206       .  T
C191        C192   1.205       .  T
C193        C404   1.205       .  T
C194        C403   1.205       .  T
C195        C616   1.205       .  T
C196        C615   1.205       .  T
C197        C198   1.205       .  T
C199        C620   1.206       .  T
C200        C619   1.206       .  T
C201        C202   1.206       .  T
C203       C1044   1.206       .  T
C204       C1043   1.206       .  T
C205        C206   1.205       .  T
C207       C1048   1.205       .  T
C208       C1047   1.205   1_655  T
C209        C210   1.205       .  T
O211       Zr223   2.444       .  S
O211        C213   1.287       .  A
O212      Zr1089   2.423       .  S
O212        C213   1.285       .  A
C213        C412   1.435       .  S
O214       Zr226   2.443       .  S
O214        C216   1.287       .  A
O215       Zr670   2.425   1_545  S
O215        C216   1.285       .  A
C216        C414   1.435       .  S
O217       Zr226   2.442       .  S
O217        C219   1.287       .  A
O218       Zr249   2.423   1_545  S
O218       C1059   1.285       .  A
C219       O1058   1.285       .  A
C219        C419   1.434       .  S
O220       Zr223   2.442       .  S
O220        C222   1.287       .  A
O221       Zr250   2.423       .  S
O221        C642   1.285       .  A
C222        O641   1.285       .  A
C222        C405   1.434       .  S
Zr223       O224   2.434   1_565  S
Zr223       O645   2.435       .  S
Zr223       O229   2.372   1_565  S
Zr223       O230   2.371   1_565  S
Zr223       O673   2.372       .  S
Zr223       O675   2.371       .  S
O224        H267   0.990       .  S
O225       Zr643   2.435       .  S
O225        H266   0.990       .  S
O225        H270   0.990       .  S
Zr226       O227   2.436       .  S
Zr226      O1068   2.433       .  S
Zr226       O230   2.370       .  S
Zr226       O229   2.372       .  S
Zr226      O1094   2.373       .  S
Zr226      O1096   2.373       .  S
O227        H268   0.990       .  S
O227        H271   0.990       .  S
O228      Zr1066   2.433   1_455  S
O228        H261   0.990       .  S
O229      Zr1089   2.380   1_545  S
O230       Zr670   2.383   1_545  S
O230        H257   0.966       .  S
O231       Zr243   2.442       .  S
O231        C233   1.286       .  A
O232       Zr250   2.422       .  S
O232       C1073   1.285       .  A
C233       O1072   1.285       .  A
C233        C416   1.433       .  S
O234       Zr246   2.444       .  S
O234        C236   1.287       .  A
O235       Zr249   2.423   1_455  S
O235        C656   1.285       .  A
C236        O655   1.285       .  A
C236        C410   1.435       .  S
O237       Zr246   2.442       .  S
O237        C239   1.286       .  A
O238      Zr1090   2.422   1_455  S
O238        C239   1.285       .  A
C239        C407   1.434       .  S
O240       Zr243   2.442       .  S
O240        C242   1.287       .  A
O241       Zr669   2.424       .  S
O241        C242   1.285       .  A
C242        C418   1.434       .  S
Zr243       O244   2.435   1_655  S
Zr243      O1085   2.434       .  S
Zr243       O251   2.372   1_655  S
Zr243       O252   2.371   1_655  S
Zr243      O1095   2.372       .  S
Zr243      O1093   2.372       .  S
O244        H264   0.990       .  S
O244        H269   0.990       .  S
O245      Zr1083   2.434       .  S
O245        H265   0.990       .  S
Zr246       O247   2.434       .  S
Zr246       O668   2.435       .  S
Zr246       O252   2.371       .  S
Zr246       O251   2.372       .  S
Zr246       O676   2.374       .  S
Zr246       O674   2.371       .  S
O247        H263   0.990       .  S
O248       Zr666   2.435   1_545  S
O248        H262   0.990       .  S
O248        H272   0.990       .  S
Zr249      O1052   2.423       .  S
Zr249       O661   2.424       .  S
Zr249      O1069   2.380   1_565  S
Zr249       O672   2.379   1_655  S
Zr249       O254   2.384   1_665  S
Zr249      O1515   2.384       .  S
Zr250       O635   2.425       .  S
Zr250      O1078   2.422       .  S
Zr250       O650   2.383       .  S
Zr250      O1091   2.384       .  S
Zr250       O253   2.381       .  S
Zr250      O1516   2.380       .  S
O251      Zr1090   2.384   1_455  S
O251        H259   0.966       .  S
O252       Zr669   2.379   1_455  S
O253       Zr643   2.372       .  S
O253      Zr1083   2.372       .  S
O254      Zr1066   2.373   1_455  S
O254       Zr666   2.371   1_545  S
O254        H258   0.966       .  S
O255       Zr643   2.371       .  S
O255      Zr1083   2.372       .  S
O255      Zr1509   2.384       .  S
O255        H260   0.966       .  S
O256      Zr1066   2.373   1_455  S
O256       Zr666   2.374   1_545  S
O256      Zr1510   2.380   1_445  S
O273       Zr285   2.442       .  S
O273        C275   1.287       .  A
O274       Zr311   2.423       .  S
O274       C1115   1.285       .  A
C275       O1114   1.285       .  A
C275        C420   1.434       .  S
O276       Zr288   2.443       .  S
O276        C278   1.287       .  A
O277       Zr312   2.424       .  S
O277        C278   1.285       .  A
C278        C398   1.435       .  S
O279       Zr288   2.441       .  S
O279        C281   1.287       .  A
O280      Zr1151   2.424       .  S
O280        C281   1.285       .  A
C281        C400   1.435       .  S
O282       Zr285   2.442       .  S
O282        C284   1.287       .  A
O283       Zr312   2.424       .  S
O283        C284   1.285       .  A
C284        C417   1.434       .  S
Zr285       O286   2.434       .  S
Zr285      O1127   2.434       .  S
Zr285       O291   2.373       .  S
Zr285       O292   2.371       .  S
Zr285      O1155   2.371       .  S
Zr285      O1157   2.372       .  S
O286        H329   0.990       .  S
O287      Zr1125   2.434   1_455  S
O287        H328   0.990       .  S
O287        H332   0.990       .  S
Zr288       O289   2.436       .  S
Zr288       O292   2.370       .  S
Zr288       O291   2.372       .  S
O289        H330   0.990       .  S
O289        H333   0.990       .  S
O290        H323   0.990       .  S
O291      Zr1151   2.380       .  S
O292       Zr312   2.383       .  S
O292        H319   0.966       .  S
O293        C295   1.287       .  A
O294      Zr1152   2.422   1_455  S
C295        C402   1.433       .  S
O296       Zr308   2.443       .  S
O296        C298   1.287       .  A
O297        C298   1.285       .  A
C298        C413   1.435       .  S
O299       Zr308   2.440       .  S
O299        C301   1.286       .  A
O300       C1141   1.285       .  A
C301       O1140   1.285       .  A
C301        C415   1.433       .  S
O302       Zr305   2.442       .  S
O303       Zr311   2.422   1_455  S
C304        C403   1.434       .  S
Zr305       O307   2.435       .  S
Zr305       O317   2.372       .  S
Zr305       O315   2.372       .  S
O306        H326   0.990       .  S
O306        H331   0.990       .  S
O307        H327   0.990       .  S
Zr308       O309   2.434   1_655  S
Zr308      O1150   2.435       .  S
Zr308       O314   2.371   1_655  S
Zr308       O313   2.372   1_655  S
Zr308      O1158   2.373       .  S
Zr308      O1156   2.370       .  S
O309        H325   0.990       .  S
O310      Zr1148   2.435       .  S
O310        H324   0.990       .  S
O310        H334   0.990       .  S
Zr311      O1120   2.424       .  S
Zr311      O1131   2.380       .  S
Zr311       O946   2.383       .  S
Zr311       O317   2.385   1_655  S
Zr312      O1134   2.422       .  S
Zr312       O943   2.385       .  S
Zr312      O1155   2.380       .  S
O313       Zr942   2.385   1_455  S
O313        H321   0.966       .  S
O315      Zr1125   2.371   1_455  S
O315      Zr1152   2.380   1_455  S
O316      Zr1148   2.370       .  S
O316       Zr941   2.383       .  S
O316        H320   0.966       .  S
O317      Zr1125   2.372   1_455  S
O317        H322   0.966       .  S
O318      Zr1148   2.373       .  S
O335       Zr347   2.443       .  S
O335        C337   1.287       .  A
O336       Zr583   2.424   1_544  S
C337        C399   1.435       .  S
O338       Zr350   2.443       .  S
O338        C760   1.287       .  A
O339       Zr374   2.423       .  S
O339        C340   1.285       .  A
C340        O758   1.287       .  A
C340        C409   1.435       .  S
O341       Zr350   2.443       .  S
O341        C763   1.287       .  A
O342       Zr373   2.423       .  S
O342        C763   1.285       .  A
C343        O761   1.287       .  A
C343        O762   1.285       .  A
C343        C411   1.435       .  S
O344       Zr347   2.442       .  S
O344        C346   1.287       .  A
O345       Zr374   2.424   1_545  S
O345        C346   1.285       .  A
C346        C404   1.434       .  S
Zr347       O348   2.435       .  S
Zr347       O353   2.373       .  S
Zr347       O354   2.371       .  S
O348        H391   0.990       .  S
O349        H390   0.990       .  S
O349        H394   0.990       .  S
Zr350       O771   2.436       .  S
Zr350       O352   2.433       .  S
Zr350       O774   2.371       .  S
Zr350       O773   2.372       .  S
Zr350       O378   2.373       .  S
Zr350       O380   2.373       .  S
O351       Zr770   2.436   1_545  S
O351        H392   0.990       .  S
O351        H395   0.990       .  S
O352        H385   0.990       .  S
O353       Zr770   2.372   1_545  S
O353       Zr793   2.380   1_545  S
O354       Zr770   2.371   1_545  S
O354       Zr374   2.383   1_545  S
O354        H381   0.966       .  S
O355       Zr367   2.442       .  S
O355        C777   1.286       .  A
O356        C777   1.284       .  A
C357        O775   1.286       .  A
C357        O776   1.284       .  A
C357        C408   1.434       .  S
O358       Zr370   2.444       .  S
O359       Zr373   2.423       .  S
O361       Zr370   2.442       .  S
O362       Zr794   2.422       .  S
C363        C401   1.433       .  S
O364       Zr367   2.442       .  S
O364        C786   1.287       .  A
O365        C366   1.285       .  A
C366        O784   1.287       .  A
C366        C406   1.434       .  S
Zr367       O788   2.436       .  S
Zr367       O369   2.434   1_565  S
Zr367       O795   2.372       .  S
Zr367       O796   2.372       .  S
Zr367       O379   2.372   1_565  S
Zr367       O377   2.372   1_565  S
O368       Zr787   2.436       .  S
O368        H388   0.990       .  S
O368        H393   0.990       .  S
O369        H389   0.990       .  S
Zr370       O372   2.435       .  S
Zr370       O380   2.373       .  S
Zr370       O378   2.371       .  S
O371        H387   0.990       .  S
O372        H386   0.990       .  S
O372        H396   0.990       .  S
Zr373       O546   2.424       .  S
Zr373       O773   2.380       .  S
Zr373       O378   2.385       .  S
Zr373       O589   2.385       .  S
Zr374       O782   2.422       .  S
Zr374       O585   2.384       .  S
Zr374       O800   2.381       .  S
O375       Zr787   2.372       .  S
O375       Zr584   2.385       .  S
O375        H383   0.966       .  S
O376       Zr787   2.372       .  S
O378        H382   0.965       .  S
O379       Zr583   2.385   1_545  S
O379        H384   0.966       .  S
O380       Zr794   2.381       .  S
C397        C398   1.206       .  T
C399        C400   1.206       .  T
C401        C402   1.205       .  T
C405        C826   1.205       .  T
C406        C825   1.205       .  T
C407        C408   1.205       .  T
C409        C830   1.206       .  T
C410        C829   1.206       .  T
C411        C412   1.206       .  T
C413       C1254   1.206       .  T
C414       C1253   1.206       .  T
C415        C416   1.205       .  T
C417       C1258   1.205       .  T
C418       C1257   1.205   1_655  T
C419        C420   1.205       .  T
O421       Zr433   2.444       .  S
O421        C423   1.287       .  A
O422      Zr1299   2.423       .  S
O422        C423   1.285       .  A
C423        C622   1.435       .  S
O424       Zr436   2.443       .  S
O424        C426   1.287       .  A
O425        C426   1.285       .  A
C426        C624   1.435       .  S
O427       Zr436   2.441       .  S
O427        C429   1.287       .  A
O428       Zr459   2.423       .  S
O428       C1269   1.285       .  A
C429       O1268   1.285       .  A
C429        C629   1.434       .  S
O430       Zr433   2.442       .  S
O430        C432   1.287       .  A
O431       Zr460   2.423       .  S
C432        C615   1.434       .  S
Zr433       O434   2.434       .  S
Zr433       O439   2.372       .  S
Zr433       O440   2.371       .  S
O434        H477   0.990       .  S
O435        H476   0.990       .  S
O435        H480   0.990       .  S
Zr436       O437   2.436       .  S
Zr436      O1278   2.434       .  S
Zr436       O440   2.370       .  S
Zr436       O439   2.372       .  S
Zr436      O1304   2.373       .  S
Zr436      O1306   2.373       .  S
O437        H478   0.990       .  S
O437        H481   0.990       .  S
O438      Zr1276   2.434   1_455  S
O438        H471   0.990       .  S
O439      Zr1299   2.380       .  S
O440        H467   0.966       .  S
O441       Zr453   2.441       .  S
O441        C443   1.286       .  A
O442       Zr460   2.422       .  S
O442       C1283   1.285       .  A
C443       O1282   1.285       .  A
C443        C626   1.433       .  S
O444       Zr456   2.443       .  S
O444        C446   1.287       .  A
O445       Zr459   2.423   1_455  S
C446        C620   1.435       .  S
O447       Zr456   2.442       .  S
O447        C449   1.286       .  A
O448      Zr1300   2.423   1_455  S
O448        C449   1.285       .  A
C449        C617   1.434       .  S
O450       Zr453   2.441       .  S
O450        C452   1.287       .  A
O451        C452   1.285       .  A
C452        C628   1.434       .  S
Zr453       O454   2.435   1_655  S
Zr453      O1295   2.434       .  S
Zr453       O461   2.372   1_655  S
Zr453       O462   2.371   1_655  S
Zr453      O1305   2.372       .  S
Zr453      O1303   2.372       .  S
O454        H474   0.990       .  S
O454        H479   0.990       .  S
O455      Zr1293   2.434       .  S
O455        H475   0.990       .  S
Zr456       O457   2.434       .  S
Zr456       O462   2.371       .  S
Zr456       O461   2.372       .  S
O457        H473   0.990       .  S
O458        H472   0.990       .  S
O458        H482   0.990       .  S
Zr459      O1262   2.423       .  S
Zr459      O1279   2.380       .  S
Zr459       O464   2.384   1_655  S
Zr459       O885   2.384       .  S
Zr460      O1288   2.423       .  S
Zr460      O1301   2.384       .  S
Zr460       O463   2.381       .  S
Zr460       O886   2.380   1_565  S
O461      Zr1300   2.384   1_455  S
O461        H469   0.966       .  S
O463      Zr1293   2.372       .  S
O464      Zr1276   2.373   1_455  S
O464        H468   0.966       .  S
O465      Zr1293   2.372       .  S
O465       Zr879   2.384       .  S
O465        H470   0.966       .  S
O466      Zr1276   2.373   1_455  S
O466       Zr880   2.380   1_455  S
O483       Zr495   2.442       .  S
O483        C485   1.287       .  A
O484       Zr521   2.423   1_554  S
O484       C1325   1.285       .  A
C485       O1324   1.285       .  A
C485        C630   1.434       .  S
O486       Zr498   2.442   1_556  S
O486        C488   1.287       .  A
O487       Zr522   2.423       .  S
O487        C488   1.285       .  A
C488        C608   1.435       .  S
O489       Zr498   2.441       .  S
O489        C491   1.287       .  A
O490      Zr1361   2.425   1_554  S
O490        C491   1.285       .  A
C491        C610   1.435       .  S
O492       Zr495   2.441       .  S
O492        C494   1.287       .  A
O493       Zr522   2.425   1_554  S
O493        C494   1.285       .  A
C494        C627   1.434       .  S
Zr495       O496   2.434       .  S
Zr495      O1337   2.434       .  S
Zr495       O501   2.373       .  S
Zr495       O502   2.371       .  S
Zr495      O1365   2.372       .  S
Zr495      O1367   2.372       .  S
O496        H539   0.990       .  S
O497      Zr1335   2.434   1_455  S
O497        H538   0.990       .  S
O497        H542   0.990       .  S
Zr498       O499   2.436       .  S
Zr498       O710   2.433   1_554  S
Zr498       O502   2.371       .  S
Zr498       O501   2.372       .  S
Zr498       O736   2.372   1_554  S
Zr498       O738   2.373   1_554  S
O499        H540   0.990       .  S
O499        H543   0.990       .  S
O500       Zr708   2.434       .  S
O500        H533   0.990       .  S
O501      Zr1361   2.381   1_554  S
O502       Zr522   2.383   1_554  S
O502        H529   0.966       .  S
O503       Zr725   2.443       .  S
O503        C505   1.287       .  A
O504      Zr1362   2.421   1_454  S
O504        C715   1.284       .  A
C505        O714   1.285       .  A
C505        C612   1.434       .  S
O506       Zr518   2.444       .  S
O506        C508   1.287       .  A
O507       Zr731   2.424       .  S
O507        C508   1.285       .  A
C508        C623   1.435       .  S
O509       Zr518   2.440       .  S
O509        C511   1.286       .  A
O510       Zr732   2.423       .  S
O510       C1351   1.285       .  A
C511       O1350   1.285       .  A
C511        C625   1.433       .  S
O512       Zr515   2.443       .  S
O512        C724   1.287       .  A
O513       Zr521   2.422   1_455  S
O513        C724   1.285       .  A
C514        O722   1.287       .  A
C514        O723   1.285       .  A
C514        C613   1.434       .  S
Zr515       O713   2.443   1_556  S
Zr515       O726   2.436       .  S
Zr515       O517   2.435   1_556  S
Zr515       O733   2.372       .  S
Zr515       O734   2.372       .  S
Zr515       O527   2.372   1_556  S
Zr515       O525   2.373   1_556  S
O516       Zr725   2.436       .  S
O516        H536   0.990       .  S
O516        H541   0.990       .  S
O517        H537   0.990       .  S
Zr518       O519   2.434   1_655  S
Zr518      O1360   2.435       .  S
Zr518       O524   2.371   1_655  S
Zr518       O523   2.372   1_655  S
Zr518      O1368   2.373       .  S
Zr518      O1366   2.370       .  S
O519        H535   0.990       .  S
O520      Zr1358   2.435       .  S
O520        H534   0.990       .  S
O520        H544   0.990       .  S
Zr521      O1330   2.425   1_556  S
Zr521       O717   2.424       .  S
Zr521      O1341   2.381   1_556  S
Zr521       O734   2.380   1_655  S
Zr521      O1576   2.383       .  S
Zr521       O527   2.385   1_656  S
Zr522      O1344   2.421   1_556  S
Zr522       O720   2.423       .  S
Zr522      O1573   2.385       .  S
Zr522      O1365   2.380   1_556  S
Zr522       O738   2.381       .  S
O523       Zr725   2.372       .  S
O523      Zr1572   2.385   1_455  S
O523        H531   0.966       .  S
O524       Zr725   2.372       .  S
O524       Zr731   2.380   1_455  S
O525      Zr1335   2.372   1_455  S
O525      Zr1362   2.380   1_454  S
O526       Zr708   2.373       .  S
O526      Zr1358   2.370       .  S
O526      Zr1571   2.383       .  S
O526        H530   0.966       .  S
O527      Zr1335   2.372   1_455  S
O527        H532   0.966       .  S
O528       Zr708   2.373       .  S
O528      Zr1358   2.373       .  S
O528       Zr732   2.381       .  S
O545       Zr557   2.443   1_554  S
O545        C547   1.287       .  A
O546        C757   1.285       .  A
C547        O756   1.285       .  A
C547        C609   1.435       .  S
O548       Zr560   2.443       .  S
O549       Zr584   2.424   1_554  S
O549        C550   1.285       .  A
C550        C619   1.435       .  S
O551       Zr560   2.442       .  S
O552       Zr583   2.424   1_554  S
C553        C621   1.435       .  S
O554       Zr557   2.442       .  S
O554        C556   1.287       .  A
O555       Zr584   2.424       .  S
O555        C556   1.285       .  A
C556        C614   1.434       .  S
Zr557       O558   2.434   1_556  S
Zr557       O769   2.435       .  S
Zr557       O563   2.373   1_556  S
Zr557       O564   2.371   1_556  S
Zr557       O797   2.372       .  S
Zr557       O799   2.372       .  S
O558        H601   0.990       .  S
O559       Zr767   2.435       .  S
O559        H600   0.990       .  S
O559        H604   0.990       .  S
Zr560       O562   2.433       .  S
Zr560       O588   2.373       .  S
Zr560       O590   2.373       .  S
O561        H602   0.990       .  S
O561        H605   0.990       .  S
O562        H595   0.990       .  S
O564       Zr584   2.382   1_554  S
O564        H591   0.966       .  S
O565       Zr577   2.442       .  S
O566       Zr794   2.422       .  S
C567        C618   1.434       .  S
O568       Zr580   2.443   1_556  S
O568        C780   1.287       .  A
O569       Zr583   2.424       .  S
O569        C780   1.285       .  A
C570        O778   1.287       .  A
C570        O779   1.285       .  A
C570        C817   1.435       .  S
O571       Zr580   2.442       .  S
O571        C783   1.286       .  A
O572        C783   1.284   1_556  A
C573        O781   1.286       .  A
C573        O782   1.284       .  A
C573        C611   1.434       .  S
O574       Zr577   2.442       .  S
O575       Zr793   2.423       .  S
O575        C576   1.285       .  A
C576        C616   1.434       .  S
Zr577       O579   2.434       .  S
Zr577       O589   2.372       .  S
Zr577       O587   2.372       .  S
O578        H598   0.990       .  S
O578        H603   0.990       .  S
O579        H599   0.990       .  S
Zr580       O791   2.434   1_554  S
Zr580       O582   2.435       .  S
Zr580       O796   2.372   1_554  S
Zr580       O795   2.372   1_554  S
Zr580       O590   2.373       .  S
Zr580       O588   2.371       .  S
O581       Zr790   2.434       .  S
O581        H597   0.990       .  S
O582        H596   0.990       .  S
O582        H606   0.990       .  S
Zr583       O785   2.423       .  S
Zr583       O796   2.380       .  S
Zr583       O588   2.385   1_556  S
Zr584       O776   2.421       .  S
Zr584       O797   2.380       .  S
O585       Zr790   2.372       .  S
O585        H593   0.966       .  S
O586       Zr790   2.371       .  S
O586       Zr793   2.380       .  S
O587       Zr767   2.372       .  S
O587       Zr794   2.380       .  S
O588        H592   0.965       .  S
O589       Zr767   2.372       .  S
O589        H594   0.965       .  S
C607        C780   1.435       .  S
C607        C608   1.206       .  T
C609        C610   1.206       .  T
C611        C612   1.205       .  T
C613        C824   1.205       .  T
C614        C823   1.205       .  T
C617        C618   1.205       .  T
C621        C622   1.206       .  T
C623       C1464   1.206       .  T
C624       C1463   1.206       .  T
C625        C626   1.205       .  T
C627       C1468   1.205       .  T
C628       C1467   1.205   1_655  T
C629        C630   1.205       .  T
O631       Zr643   2.444       .  S
O631        C633   1.287       .  A
O632      Zr1509   2.423       .  S
O632        C633   1.285       .  A
C633        C832   1.435       .  S
O634       Zr646   2.443       .  S
O634        C636   1.287       .  A
O635        C636   1.285       .  A
C636        C834   1.435       .  S
O637       Zr646   2.442       .  S
O637        C639   1.287       .  A
O638       Zr669   2.423       .  S
O638       C1479   1.285       .  A
C639       O1478   1.285       .  A
C639        C839   1.434       .  S
O640       Zr643   2.442       .  S
O640        C642   1.287       .  A
O641       Zr670   2.423       .  S
C642        C825   1.434       .  S
Zr643       O644   2.434       .  S
Zr643       O649   2.372       .  S
Zr643       O650   2.371       .  S
O644        H687   0.990       .  S
O645        H686   0.990       .  S
O645        H690   0.990       .  S
Zr646       O647   2.436       .  S
Zr646      O1488   2.433       .  S
Zr646       O650   2.370       .  S
Zr646       O649   2.372       .  S
Zr646      O1514   2.373       .  S
Zr646      O1516   2.373       .  S
O647        H688   0.990       .  S
O647        H691   0.990       .  S
O648      Zr1486   2.433   1_455  S
O648        H681   0.990       .  S
O649      Zr1509   2.380       .  S
O650        H677   0.966       .  S
O651       Zr663   2.442       .  S
O651        C653   1.286       .  A
O652       Zr670   2.422       .  S
O652       C1493   1.285       .  A
C653       O1492   1.285       .  A
C653        C836   1.433       .  S
O654       Zr666   2.444       .  S
O654        C656   1.287       .  A
O655       Zr669   2.423   1_455  S
C656        C830   1.435       .  S
O657       Zr666   2.442       .  S
O657        C659   1.286       .  A
O658      Zr1510   2.422   1_455  S
O658        C659   1.285       .  A
C659        C827   1.434       .  S
O660       Zr663   2.442       .  S
O660        C662   1.287       .  A
O661        C662   1.285       .  A
C662        C838   1.434       .  S
Zr663       O664   2.435   1_655  S
Zr663      O1505   2.434       .  S
Zr663       O671   2.372   1_655  S
Zr663       O672   2.371   1_655  S
Zr663      O1515   2.372       .  S
Zr663      O1513   2.372       .  S
O664        H684   0.990       .  S
O664        H689   0.990       .  S
O665      Zr1503   2.434       .  S
O665        H685   0.990       .  S
Zr666       O667   2.434       .  S
Zr666       O672   2.371       .  S
Zr666       O671   2.372       .  S
O667        H683   0.990       .  S
O668        H682   0.990       .  S
O668        H692   0.990       .  S
Zr669      O1472   2.423       .  S
Zr669      O1489   2.380       .  S
Zr669       O674   2.384   1_655  S
Zr669      O1095   2.384       .  S
Zr670      O1498   2.422       .  S
Zr670      O1511   2.384       .  S
Zr670       O673   2.381       .  S
Zr670      O1096   2.380   1_565  S
O671      Zr1510   2.384   1_455  S
O671        H679   0.966       .  S
O673      Zr1503   2.372       .  S
O674      Zr1486   2.373   1_455  S
O674        H678   0.966       .  S
O675      Zr1503   2.372       .  S
O675      Zr1089   2.384       .  S
O675        H680   0.966       .  S
O676      Zr1486   2.373   1_455  S
O676      Zr1090   2.380   1_455  S
O693       Zr705   2.442       .  S
O693        C695   1.287       .  A
O694       Zr731   2.423       .  S
O694       C1535   1.285       .  A
C695       O1534   1.285       .  A
C695        C840   1.434       .  S
O696       Zr708   2.443       .  S
O696        C698   1.287       .  A
O697       Zr732   2.424       .  S
O697        C698   1.285       .  A
C698        C818   1.435       .  S
O699       Zr708   2.441       .  S
O699        C701   1.287       .  A
O700      Zr1571   2.424       .  S
O700        C701   1.285       .  A
C701        C820   1.435       .  S
O702       Zr705   2.442       .  S
O702        C704   1.287       .  A
O703       Zr732   2.424       .  S
O703        C704   1.285       .  A
C704        C837   1.434       .  S
Zr705       O706   2.434       .  S
Zr705      O1547   2.434       .  S
Zr705       O711   2.373       .  S
Zr705       O712   2.371       .  S
Zr705      O1575   2.371       .  S
Zr705      O1577   2.372       .  S
O706        H749   0.990       .  S
O707      Zr1545   2.434   1_455  S
O707        H748   0.990       .  S
O707        H752   0.990       .  S
Zr708       O709   2.436       .  S
Zr708       O712   2.370       .  S
Zr708       O711   2.372       .  S
O709        H750   0.990       .  S
O709        H753   0.990       .  S
O710        H743   0.990       .  S
O711      Zr1571   2.380       .  S
O712       Zr732   2.383       .  S
O712        H739   0.966       .  S
O713        C715   1.287       .  A
O714      Zr1572   2.422   1_455  S
C715        C822   1.433       .  S
O716       Zr728   2.443       .  S
O716        C718   1.287       .  A
O717        C718   1.285       .  A
C718        C833   1.435       .  S
O719       Zr728   2.440       .  S
O719        C721   1.286       .  A
O720       C1561   1.285       .  A
C721       O1560   1.285       .  A
C721        C835   1.433       .  S
O722       Zr725   2.442       .  S
O723       Zr731   2.422   1_455  S
C724        C823   1.434       .  S
Zr725       O727   2.435       .  S
Zr725       O737   2.372       .  S
Zr725       O735   2.372       .  S
O726        H746   0.990       .  S
O726        H751   0.990       .  S
O727        H747   0.990       .  S
Zr728       O729   2.434   1_655  S
Zr728      O1570   2.435       .  S
Zr728       O734   2.371   1_655  S
Zr728       O733   2.372   1_655  S
Zr728      O1578   2.373       .  S
Zr728      O1576   2.370       .  S
O729        H745   0.990       .  S
O730      Zr1568   2.435       .  S
O730        H744   0.990       .  S
O730        H754   0.990       .  S
Zr731      O1540   2.424       .  S
Zr731      O1551   2.380       .  S
Zr731      O1366   2.383       .  S
Zr731       O737   2.385   1_655  S
Zr732      O1554   2.422       .  S
Zr732      O1363   2.385       .  S
Zr732      O1575   2.380       .  S
O733      Zr1362   2.385   1_455  S
O733        H741   0.966       .  S
O735      Zr1545   2.371   1_455  S
O735      Zr1572   2.380   1_455  S
O736      Zr1568   2.370       .  S
O736      Zr1361   2.383       .  S
O736        H740   0.966       .  S
O737      Zr1545   2.372   1_455  S
O737        H742   0.966       .  S
O738      Zr1568   2.373       .  S
O755       Zr767   2.443       .  S
O755        C757   1.287       .  A
C757        C819   1.435       .  S
O758       Zr770   2.443       .  S
O759       Zr794   2.423       .  S
O759        C760   1.285       .  A
C760        C829   1.435       .  S
O761       Zr770   2.443       .  S
O762       Zr793   2.423       .  S
C763        C831   1.435       .  S
O764       Zr767   2.442       .  S
O764        C766   1.287       .  A
O765       Zr794   2.424       .  S
O765        C766   1.285       .  A
C766        C824   1.434       .  S
Zr767       O768   2.435       .  S
Zr767       O773   2.373       .  S
Zr767       O774   2.371       .  S
O768        H811   0.990       .  S
O769        H810   0.990       .  S
O769        H814   0.990       .  S
Zr770       O772   2.433       .  S
Zr770       O798   2.373       .  S
Zr770       O800   2.373       .  S
O771        H812   0.990       .  S
O771        H815   0.990       .  S
O772        H805   0.990       .  S
O774       Zr794   2.383       .  S
O774        H801   0.966       .  S
O775       Zr787   2.442       .  S
C777        C828   1.434       .  S
O778       Zr790   2.444       .  S
O779       Zr793   2.423       .  S
O781       Zr790   2.442       .  S
C783        C821   1.433       .  S
O784       Zr787   2.442       .  S
O785        C786   1.285       .  A
C786        C826   1.434       .  S
Zr787       O789   2.434       .  S
Zr787       O799   2.372       .  S
Zr787       O797   2.372       .  S
O788        H808   0.990       .  S
O788        H813   0.990       .  S
O789        H809   0.990       .  S
Zr790       O792   2.435       .  S
Zr790       O800   2.373       .  S
Zr790       O798   2.371       .  S
O791        H807   0.990       .  S
O792        H806   0.990       .  S
O792        H816   0.990       .  S
Zr793       O798   2.385       .  S
O795        H803   0.966       .  S
O798        H802   0.965       .  S
O799        H804   0.966       .  S
C817        C818   1.206       .  T
C819        C820   1.206       .  T
C821        C822   1.205       .  T
C827        C828   1.205       .  T
C831        C832   1.206       .  T
C833       C1674   1.206       .  T
C834       C1673   1.206       .  T
C835        C836   1.205       .  T
C837       C1678   1.205       .  T
C838       C1677   1.205   1_655  T
C839        C840   1.205       .  T
O841       Zr853   2.444       .  S
O841        C843   1.287       .  A
O842        C843   1.285       .  A
C843       C1042   1.435       .  S
O844       Zr856   2.443       .  S
O844        C846   1.287       .  A
O845      Zr1300   2.424   1_545  S
O845        C846   1.285       .  A
C846       C1044   1.435       .  S
O847       Zr856   2.441       .  S
O847        C849   1.287       .  A
O848       Zr879   2.423   1_545  S
C849       C1049   1.434       .  S
O850       Zr853   2.442       .  S
O850        C852   1.287       .  A
O851       Zr880   2.423       .  S
O851       C1272   1.285       .  A
C852       O1271   1.285       .  A
C852       C1035   1.434       .  S
Zr853       O854   2.434   1_565  S
Zr853      O1275   2.435       .  S
Zr853       O859   2.372   1_565  S
Zr853       O860   2.371   1_565  S
Zr853      O1303   2.372       .  S
Zr853      O1305   2.372       .  S
O854        H897   0.990       .  S
O855      Zr1273   2.435       .  S
O855        H896   0.990       .  S
O855        H900   0.990       .  S
Zr856       O857   2.436       .  S
Zr856       O860   2.370       .  S
Zr856       O859   2.372       .  S
O857        H898   0.990       .  S
O857        H901   0.990       .  S
O858        H891   0.990       .  S
O860      Zr1300   2.383   1_545  S
O860        H887   0.966       .  S
O861       Zr873   2.441       .  S
O861        C863   1.286       .  A
O862       Zr880   2.422       .  S
C863       C1046   1.433       .  S
O864       Zr876   2.443       .  S
O864        C866   1.287       .  A
O865       Zr879   2.423       .  S
O865       C1286   1.285       .  A
C866       O1285   1.285       .  A
C866       C1040   1.435       .  S
O867       Zr876   2.442       .  S
O867        C869   1.286       .  A
O868        C869   1.285       .  A
C869       C1037   1.434       .  S
O870       Zr873   2.441       .  S
O870        C872   1.287       .  A
O871      Zr1299   2.424       .  S
O871        C872   1.285       .  A
C872       C1048   1.434       .  S
Zr873       O874   2.435       .  S
Zr873       O881   2.372       .  S
Zr873       O882   2.371       .  S
O874        H894   0.990       .  S
O874        H899   0.990       .  S
O875        H895   0.990       .  S
Zr876       O877   2.434       .  S
Zr876      O1298   2.435       .  S
Zr876       O882   2.371       .  S
Zr876       O881   2.372       .  S
Zr876      O1306   2.373       .  S
Zr876      O1304   2.371       .  S
O877        H893   0.990       .  S
O878      Zr1296   2.435   1_545  S
O878        H892   0.990       .  S
O878        H902   0.990       .  S
Zr879      O1291   2.424       .  S
Zr879      O1302   2.379       .  S
Zr879       O884   2.384   1_565  S
Zr880      O1265   2.424       .  S
Zr880      O1280   2.383       .  S
Zr880       O883   2.381       .  S
O881        H889   0.966       .  S
O882      Zr1299   2.379       .  S
O883      Zr1273   2.372       .  S
O884      Zr1296   2.371   1_545  S
O884        H888   0.966       .  S
O885      Zr1273   2.372       .  S
O885        H890   0.966       .  S
O886      Zr1296   2.373   1_545  S
O903       Zr915   2.442       .  S
O903        C905   1.287       .  A
O904       Zr941   2.423   1_554  S
C905       C1050   1.434       .  S
O906       Zr918   2.442   1_556  S
O906        C908   1.287       .  A
O907       Zr942   2.423       .  S
O907        C908   1.285       .  A
C908       C1028   1.435       .  S
O909       Zr918   2.441       .  S
O909        C911   1.287       .  A
O910        C911   1.285       .  A
C911       C1030   1.435       .  S
O912       Zr915   2.441       .  S
O912        C914   1.287       .  A
O913       Zr942   2.425   1_554  S
O913        C914   1.285       .  A
C914       C1047   1.434   1_655  S
Zr915       O916   2.434       .  S
Zr915       O921   2.373       .  S
Zr915       O922   2.371       .  S
O916        H959   0.990       .  S
O917        H958   0.990       .  S
O917        H962   0.990       .  S
Zr918       O919   2.436       .  S
Zr918      O1130   2.433   1_554  S
Zr918       O922   2.371       .  S
Zr918       O921   2.372       .  S
Zr918      O1156   2.372   1_554  S
Zr918      O1158   2.373   1_554  S
O919        H960   0.990       .  S
O919        H963   0.990       .  S
O920      Zr1128   2.434       .  S
O920        H953   0.990       .  S
O922       Zr942   2.383   1_554  S
O922        H949   0.966       .  S
O923      Zr1145   2.443       .  S
O923        C925   1.287       .  A
O924       C1135   1.284       .  A
C925       O1134   1.285       .  A
C925       C1032   1.434       .  S
O926       Zr938   2.444       .  S
O926        C928   1.287       .  A
O927      Zr1151   2.424       .  S
O927        C928   1.285       .  A
C928       C1043   1.435       .  S
O929       Zr938   2.440       .  S
O929        C931   1.286       .  A
O930      Zr1152   2.423       .  S
C931       C1045   1.433       .  S
O932       Zr935   2.443       .  S
O932       C1144   1.287       .  A
O933       Zr941   2.422       .  S
O933       C1144   1.285       .  A
C934       O1142   1.287       .  A
C934       O1143   1.285       .  A
C934       C1033   1.434       .  S
Zr935      O1133   2.443   1_556  S
Zr935      O1146   2.436       .  S
Zr935       O937   2.435   1_556  S
Zr935      O1153   2.372       .  S
Zr935      O1154   2.372       .  S
Zr935       O947   2.372   1_556  S
Zr935       O945   2.373   1_556  S
O936      Zr1145   2.436       .  S
O936        H956   0.990       .  S
O936        H961   0.990       .  S
O937        H957   0.990       .  S
Zr938       O939   2.434       .  S
Zr938       O944   2.371       .  S
Zr938       O943   2.372       .  S
O939        H955   0.990       .  S
O940        H954   0.990       .  S
O940        H964   0.990       .  S
Zr941      O1137   2.424       .  S
Zr941      O1154   2.380       .  S
Zr941       O947   2.385   1_556  S
Zr942      O1140   2.423       .  S
Zr942      O1158   2.381       .  S
O943      Zr1145   2.372       .  S
O943        H951   0.966       .  S
O944      Zr1145   2.372       .  S
O944      Zr1151   2.380       .  S
O946      Zr1128   2.373       .  S
O946        H950   0.966       .  S
O947        H952   0.966       .  S
O948      Zr1128   2.373       .  S
O948      Zr1152   2.381       .  S
O965       Zr977   2.443   1_554  S
O965        C967   1.287       .  A
O966      Zr1633   2.424   1_545  S
O966       C1177   1.285       .  A
C967       O1176   1.285       .  A
C967       C1029   1.435       .  S
O968       Zr980   2.443       .  S
O968       C1390   1.287       .  A
O969      Zr1004   2.424   1_554  S
O969        C970   1.285       .  A
C970       O1388   1.287       .  A
C970       C1039   1.435       .  S
O971       Zr980   2.442       .  S
O971       C1393   1.287       .  A
O972      Zr1003   2.424   1_554  S
O972       C1393   1.285       .  A
C973       O1391   1.287       .  A
C973       O1392   1.285       .  A
C973       C1041   1.435       .  S
O974       Zr977   2.442       .  S
O974        C976   1.287       .  A
O975      Zr1004   2.424   1_545  S
O975        C976   1.285       .  A
C976       C1034   1.434       .  S
Zr977       O978   2.434   1_556  S
Zr977      O1189   2.435       .  S
Zr977       O983   2.373   1_556  S
Zr977       O984   2.371   1_556  S
Zr977      O1217   2.372       .  S
Zr977      O1219   2.372       .  S
O978       H1021   0.990       .  S
O979      Zr1187   2.435       .  S
O979       H1020   0.990       .  S
O979       H1024   0.990       .  S
Zr980      O1401   2.436       .  S
Zr980       O982   2.433       .  S
Zr980      O1404   2.370       .  S
Zr980      O1403   2.372       .  S
Zr980      O1008   2.373       .  S
Zr980      O1010   2.373       .  S
O981      Zr1400   2.436   1_545  S
O981       H1022   0.990       .  S
O981       H1025   0.990       .  S
O982       H1015   0.990       .  S
O983      Zr1400   2.372   1_545  S
O983      Zr1423   2.380   1_544  S
O984      Zr1400   2.370   1_545  S
O984      Zr1004   2.382   1_544  S
O984       H1011   0.966       .  S
O985       Zr997   2.442       .  S
O985       C1407   1.286       .  A
O986      Zr1214   2.422       .  S
O986       C1407   1.285       .  A
C987       O1405   1.286       .  A
C987       O1406   1.285       .  A
C987       C1038   1.434       .  S
O988      Zr1000   2.443   1_556  S
O988       C1200   1.287       .  A
O989      Zr1003   2.424       .  S
O989       C1200   1.285       .  A
C990       O1198   1.287       .  A
C990       O1199   1.285       .  A
C990       C1237   1.435       .  S
O991      Zr1000   2.442       .  S
O991       C1203   1.286       .  A
O992      Zr1424   2.421       .  S
O992       C1203   1.284   1_556  A
C993       O1201   1.286       .  A
C993       O1202   1.284       .  A
C993       C1031   1.434       .  S
O994       Zr997   2.442       .  S
O994       C1416   1.287       .  A
O995      Zr1213   2.423       .  S
O995        C996   1.285       .  A
C996       O1414   1.287       .  A
C996       C1036   1.434       .  S
Zr997      O1418   2.436       .  S
Zr997       O999   2.434   1_565  S
Zr997      O1425   2.372       .  S
Zr997      O1426   2.372       .  S
Zr997      O1009   2.372   1_565  S
Zr997      O1007   2.372   1_565  S
O998      Zr1417   2.436       .  S
O998       H1018   0.990       .  S
O998       H1023   0.990       .  S
O999       H1019   0.990       .  S
Zr1000     O1211   2.434   1_554  S
Zr1000     O1002   2.435       .  S
Zr1000     O1216   2.372   1_554  S
Zr1000     O1215   2.372   1_554  S
Zr1000     O1010   2.373       .  S
Zr1000     O1008   2.371       .  S
O1001     Zr1210   2.434       .  S
O1001      H1017   0.990       .  S
O1002      H1016   0.990       .  S
O1002      H1026   0.990       .  S
Zr1003     O1596   2.424   1_556  S
Zr1003     O1205   2.423       .  S
Zr1003     O1403   2.380   1_556  S
Zr1003     O1216   2.380       .  S
Zr1003     O1008   2.385   1_556  S
Zr1003     O1639   2.385       .  S
Zr1004     O1196   2.421       .  S
Zr1004     O1412   2.421       .  S
Zr1004     O1635   2.385       .  S
Zr1004     O1217   2.380   1_565  S
Zr1004     O1430   2.381   1_556  S
O1005     Zr1417   2.372       .  S
O1005     Zr1210   2.372       .  S
O1005     Zr1634   2.384       .  S
O1005      H1013   0.966       .  S
O1006     Zr1417   2.372       .  S
O1006     Zr1210   2.371       .  S
O1006     Zr1213   2.380       .  S
O1007     Zr1187   2.372       .  S
O1007     Zr1214   2.380   1_545  S
O1008      H1012   0.965       .  S
O1009     Zr1187   2.372       .  S
O1009     Zr1633   2.385   1_545  S
O1009      H1014   0.965       .  S
O1010     Zr1424   2.381   1_554  S
C1027      C1200   1.435       .  S
C1027      C1028   1.206       .  T
C1029      C1030   1.206       .  T
C1031      C1032   1.205       .  T
C1033      C1244   1.205       .  T
C1034      C1243   1.205       .  T
C1035      C1456   1.205       .  T
C1036      C1455   1.205       .  T
C1037      C1038   1.205       .  T
C1039      C1460   1.206       .  T
C1040      C1459   1.206       .  T
C1041      C1042   1.206       .  T
C1045      C1046   1.205       .  T
C1049      C1050   1.205       .  T
O1051     Zr1063   2.444       .  S
O1051      C1053   1.287       .  A
O1052      C1053   1.285       .  A
C1053      C1252   1.435       .  S
O1054     Zr1066   2.443       .  S
O1054      C1056   1.287       .  A
O1055     Zr1510   2.425   1_545  S
O1055      C1056   1.285       .  A
C1056      C1254   1.435       .  S
O1057     Zr1066   2.442       .  S
O1057      C1059   1.287       .  A
O1058     Zr1089   2.423   1_545  S
C1059      C1259   1.434       .  S
O1060     Zr1063   2.442       .  S
O1060      C1062   1.287       .  A
O1061     Zr1090   2.423       .  S
O1061      C1482   1.285       .  A
C1062      O1481   1.285       .  A
C1062      C1245   1.434       .  S
Zr1063     O1064   2.434   1_565  S
Zr1063     O1485   2.435       .  S
Zr1063     O1069   2.372   1_565  S
Zr1063     O1070   2.371   1_565  S
Zr1063     O1513   2.372       .  S
Zr1063     O1515   2.371       .  S
O1064      H1107   0.990       .  S
O1065     Zr1483   2.435       .  S
O1065      H1106   0.990       .  S
O1065      H1110   0.990       .  S
Zr1066     O1067   2.436       .  S
Zr1066     O1070   2.370       .  S
Zr1066     O1069   2.372       .  S
O1067      H1108   0.990       .  S
O1067      H1111   0.990       .  S
O1068      H1101   0.990       .  S
O1070     Zr1510   2.383   1_545  S
O1070      H1097   0.966       .  S
O1071     Zr1083   2.442       .  S
O1071      C1073   1.286       .  A
O1072     Zr1090   2.422       .  S
C1073      C1256   1.433       .  S
O1074     Zr1086   2.444       .  S
O1074      C1076   1.287       .  A
O1075     Zr1089   2.423       .  S
O1075      C1496   1.285       .  A
C1076      O1495   1.285       .  A
C1076      C1250   1.435       .  S
O1077     Zr1086   2.442       .  S
O1077      C1079   1.286       .  A
O1078      C1079   1.285       .  A
C1079      C1247   1.434       .  S
O1080     Zr1083   2.442       .  S
O1080      C1082   1.287       .  A
O1081     Zr1509   2.424       .  S
O1081      C1082   1.285       .  A
C1082      C1258   1.434       .  S
Zr1083     O1084   2.435       .  S
Zr1083     O1091   2.372       .  S
Zr1083     O1092   2.371       .  S
O1084      H1104   0.990       .  S
O1084      H1109   0.990       .  S
O1085      H1105   0.990       .  S
Zr1086     O1087   2.434       .  S
Zr1086     O1508   2.435       .  S
Zr1086     O1092   2.371       .  S
Zr1086     O1091   2.372       .  S
Zr1086     O1516   2.374       .  S
Zr1086     O1514   2.371       .  S
O1087      H1103   0.990       .  S
O1088     Zr1506   2.435   1_545  S
O1088      H1102   0.990       .  S
O1088      H1112   0.990       .  S
Zr1089     O1501   2.424       .  S
Zr1089     O1512   2.379       .  S
Zr1089     O1094   2.384   1_565  S
Zr1090     O1475   2.425       .  S
Zr1090     O1490   2.383       .  S
Zr1090     O1093   2.381       .  S
O1091      H1099   0.966       .  S
O1092     Zr1509   2.379       .  S
O1093     Zr1483   2.372       .  S
O1094     Zr1506   2.371   1_545  S
O1094      H1098   0.966       .  S
O1095     Zr1483   2.371       .  S
O1095      H1100   0.966       .  S
O1096     Zr1506   2.374   1_545  S
O1113     Zr1125   2.442       .  S
O1113      C1115   1.287       .  A
O1114     Zr1151   2.423       .  S
C1115      C1260   1.434       .  S
O1116     Zr1128   2.443       .  S
O1116      C1118   1.287       .  A
O1117     Zr1152   2.424       .  S
O1117      C1118   1.285       .  A
C1118      C1238   1.435       .  S
O1119     Zr1128   2.441       .  S
O1119      C1121   1.287       .  A
O1120      C1121   1.285       .  A
C1121      C1240   1.435       .  S
O1122     Zr1125   2.442       .  S
O1122      C1124   1.287       .  A
O1123     Zr1152   2.424       .  S
O1123      C1124   1.285       .  A
C1124      C1257   1.434   1_655  S
Zr1125     O1126   2.434       .  S
Zr1125     O1131   2.373       .  S
Zr1125     O1132   2.371       .  S
O1126      H1169   0.990       .  S
O1127      H1168   0.990       .  S
O1127      H1172   0.990       .  S
Zr1128     O1129   2.436       .  S
Zr1128     O1132   2.370       .  S
Zr1128     O1131   2.372       .  S
O1129      H1170   0.990       .  S
O1129      H1173   0.990       .  S
O1130      H1163   0.990       .  S
O1132     Zr1152   2.383       .  S
O1132      H1159   0.966       .  S
O1133      C1135   1.287       .  A
C1135      C1242   1.433       .  S
O1136     Zr1148   2.443       .  S
O1136      C1138   1.287       .  A
O1137      C1138   1.285       .  A
C1138      C1253   1.435       .  S
O1139     Zr1148   2.440       .  S
O1139      C1141   1.286       .  A
C1141      C1255   1.433       .  S
O1142     Zr1145   2.442       .  S
O1143     Zr1151   2.422       .  S
C1144      C1243   1.434       .  S
Zr1145     O1147   2.435       .  S
Zr1145     O1157   2.372       .  S
Zr1145     O1155   2.372       .  S
O1146      H1166   0.990       .  S
O1146      H1171   0.990       .  S
O1147      H1167   0.990       .  S
Zr1148     O1149   2.434       .  S
Zr1148     O1154   2.371       .  S
Zr1148     O1153   2.372       .  S
O1149      H1165   0.990       .  S
O1150      H1164   0.990       .  S
O1150      H1174   0.990       .  S
Zr1151     O1157   2.385       .  S
O1153      H1161   0.966       .  S
O1156      H1160   0.966       .  S
O1157      H1162   0.966       .  S
O1175     Zr1187   2.443       .  S
O1175      C1177   1.287       .  A
O1176     Zr1423   2.424   1_544  S
C1177      C1239   1.435       .  S
O1178     Zr1190   2.443       .  S
O1178      C1600   1.287       .  A
O1179     Zr1214   2.423       .  S
O1179      C1180   1.285       .  A
C1180      O1598   1.287       .  A
C1180      C1249   1.435       .  S
O1181     Zr1190   2.443       .  S
O1181      C1603   1.287       .  A
O1182     Zr1213   2.423       .  S
O1182      C1603   1.285       .  A
C1183      O1601   1.287       .  A
C1183      O1602   1.285       .  A
C1183      C1251   1.435       .  S
O1184     Zr1187   2.442       .  S
O1184      C1186   1.287       .  A
O1185     Zr1214   2.424   1_545  S
O1185      C1186   1.285       .  A
C1186      C1244   1.434       .  S
Zr1187     O1188   2.435       .  S
Zr1187     O1193   2.373       .  S
Zr1187     O1194   2.371       .  S
O1188      H1231   0.990       .  S
O1189      H1230   0.990       .  S
O1189      H1234   0.990       .  S
Zr1190     O1611   2.436       .  S
Zr1190     O1192   2.433       .  S
Zr1190     O1614   2.371       .  S
Zr1190     O1613   2.372       .  S
Zr1190     O1218   2.373       .  S
Zr1190     O1220   2.373       .  S
O1191     Zr1610   2.436   1_545  S
O1191      H1232   0.990       .  S
O1191      H1235   0.990       .  S
O1192      H1225   0.990       .  S
O1193     Zr1610   2.372   1_545  S
O1193     Zr1633   2.380   1_545  S
O1194     Zr1610   2.371   1_545  S
O1194     Zr1214   2.383   1_545  S
O1194      H1221   0.966       .  S
O1195     Zr1207   2.442       .  S
O1195      C1617   1.286       .  A
O1196      C1617   1.284       .  A
C1197      O1615   1.286       .  A
C1197      O1616   1.284       .  A
C1197      C1248   1.434       .  S
O1198     Zr1210   2.444       .  S
O1199     Zr1213   2.423       .  S
O1201     Zr1210   2.442       .  S
O1202     Zr1634   2.422       .  S
C1203      C1241   1.433       .  S
O1204     Zr1207   2.442       .  S
O1204      C1626   1.287       .  A
O1205      C1206   1.285       .  A
C1206      O1624   1.287       .  A
C1206      C1246   1.434       .  S
Zr1207     O1628   2.436       .  S
Zr1207     O1209   2.434   1_565  S
Zr1207     O1635   2.372       .  S
Zr1207     O1636   2.372       .  S
Zr1207     O1219   2.372   1_565  S
Zr1207     O1217   2.372   1_565  S
O1208     Zr1627   2.436       .  S
O1208      H1228   0.990       .  S
O1208      H1233   0.990       .  S
O1209      H1229   0.990       .  S
Zr1210     O1212   2.435       .  S
Zr1210     O1220   2.373       .  S
Zr1210     O1218   2.371       .  S
O1211      H1227   0.990       .  S
O1212      H1226   0.990       .  S
O1212      H1236   0.990       .  S
Zr1213     O1386   2.424       .  S
Zr1213     O1613   2.380       .  S
Zr1213     O1218   2.385       .  S
Zr1213     O1429   2.385       .  S
Zr1214     O1622   2.422       .  S
Zr1214     O1425   2.384       .  S
Zr1214     O1640   2.381       .  S
O1215     Zr1627   2.372       .  S
O1215     Zr1424   2.385       .  S
O1215      H1223   0.966       .  S
O1216     Zr1627   2.372       .  S
O1218      H1222   0.965       .  S
O1219     Zr1423   2.385   1_545  S
O1219      H1224   0.966       .  S
O1220     Zr1634   2.381       .  S
C1237      C1238   1.206       .  T
C1239      C1240   1.206       .  T
C1241      C1242   1.205       .  T
C1245      C1666   1.205       .  T
C1246      C1665   1.205       .  T
C1247      C1248   1.205       .  T
C1249      C1670   1.206       .  T
C1250      C1669   1.206       .  T
C1251      C1252   1.206       .  T
C1255      C1256   1.205       .  T
C1259      C1260   1.205       .  T
O1261     Zr1273   2.444       .  S
O1261      C1263   1.287       .  A
O1262      C1263   1.285       .  A
C1263      C1462   1.435       .  S
O1264     Zr1276   2.443       .  S
O1264      C1266   1.287       .  A
O1265      C1266   1.285       .  A
C1266      C1464   1.435       .  S
O1267     Zr1276   2.441       .  S
O1267      C1269   1.287       .  A
O1268     Zr1299   2.423       .  S
C1269      C1469   1.434       .  S
O1270     Zr1273   2.442       .  S
O1270      C1272   1.287       .  A
O1271     Zr1300   2.423       .  S
C1272      C1455   1.434       .  S
Zr1273     O1274   2.434       .  S
Zr1273     O1279   2.372       .  S
Zr1273     O1280   2.371       .  S
O1274      H1317   0.990       .  S
O1275      H1316   0.990       .  S
O1275      H1320   0.990       .  S
Zr1276     O1277   2.436       .  S
Zr1276     O1280   2.370       .  S
Zr1276     O1279   2.372       .  S
O1277      H1318   0.990       .  S
O1277      H1321   0.990       .  S
O1278      H1311   0.990       .  S
O1280      H1307   0.966       .  S
O1281     Zr1293   2.441       .  S
O1281      C1283   1.286       .  A
O1282     Zr1300   2.422       .  S
C1283      C1466   1.433       .  S
O1284     Zr1296   2.443       .  S
O1284      C1286   1.287       .  A
O1285     Zr1299   2.423       .  S
C1286      C1460   1.435       .  S
O1287     Zr1296   2.442       .  S
O1287      C1289   1.286       .  A
O1288      C1289   1.285       .  A
C1289      C1457   1.434       .  S
O1290     Zr1293   2.441       .  S
O1290      C1292   1.287       .  A
O1291      C1292   1.285       .  A
C1292      C1468   1.434       .  S
Zr1293     O1294   2.435       .  S
Zr1293     O1301   2.372       .  S
Zr1293     O1302   2.371       .  S
O1294      H1314   0.990       .  S
O1294      H1319   0.990       .  S
O1295      H1315   0.990       .  S
Zr1296     O1297   2.434       .  S
Zr1296     O1302   2.371       .  S
Zr1296     O1301   2.372       .  S
O1297      H1313   0.990       .  S
O1298      H1312   0.990       .  S
O1298      H1322   0.990       .  S
Zr1299     O1304   2.384       .  S
Zr1300     O1303   2.381       .  S
O1301      H1309   0.966       .  S
O1304      H1308   0.966       .  S
O1305      H1310   0.966       .  S
O1323     Zr1335   2.442       .  S
O1323      C1325   1.287       .  A
O1324     Zr1361   2.423   1_554  S
C1325      C1470   1.434       .  S
O1326     Zr1338   2.442   1_556  S
O1326      C1328   1.287       .  A
O1327     Zr1362   2.423       .  S
O1327      C1328   1.285       .  A
C1328      C1448   1.435       .  S
O1329     Zr1338   2.441       .  S
O1329      C1331   1.287       .  A
O1330      C1331   1.285       .  A
C1331      C1450   1.435       .  S
O1332     Zr1335   2.441       .  S
O1332      C1334   1.287       .  A
O1333     Zr1362   2.425   1_554  S
O1333      C1334   1.285       .  A
C1334      C1467   1.434   1_655  S
Zr1335     O1336   2.434       .  S
Zr1335     O1341   2.373       .  S
Zr1335     O1342   2.371       .  S
O1336      H1379   0.990       .  S
O1337      H1378   0.990       .  S
O1337      H1382   0.990       .  S
Zr1338     O1339   2.436       .  S
Zr1338     O1550   2.433   1_554  S
Zr1338     O1342   2.371       .  S
Zr1338     O1341   2.372       .  S
Zr1338     O1576   2.372   1_554  S
Zr1338     O1578   2.373   1_554  S
O1339      H1380   0.990       .  S
O1339      H1383   0.990       .  S
O1340     Zr1548   2.434       .  S
O1340      H1373   0.990       .  S
O1342     Zr1362   2.383   1_554  S
O1342      H1369   0.966       .  S
O1343     Zr1565   2.443       .  S
O1343      C1345   1.287       .  A
O1344      C1555   1.284       .  A
C1345      O1554   1.285       .  A
C1345      C1452   1.434       .  S
O1346     Zr1358   2.444       .  S
O1346      C1348   1.287       .  A
O1347     Zr1571   2.424       .  S
O1347      C1348   1.285       .  A
C1348      C1463   1.435       .  S
O1349     Zr1358   2.440       .  S
O1349      C1351   1.286       .  A
O1350     Zr1572   2.423       .  S
C1351      C1465   1.433       .  S
O1352     Zr1355   2.443       .  S
O1352      C1564   1.287       .  A
O1353     Zr1361   2.422       .  S
O1353      C1564   1.285       .  A
C1354      O1562   1.287       .  A
C1354      O1563   1.285       .  A
C1354      C1453   1.434       .  S
Zr1355     O1553   2.443   1_556  S
Zr1355     O1566   2.436       .  S
Zr1355     O1357   2.435   1_556  S
Zr1355     O1573   2.372       .  S
Zr1355     O1574   2.372       .  S
Zr1355     O1367   2.372   1_556  S
Zr1355     O1365   2.373   1_556  S
O1356     Zr1565   2.436       .  S
O1356      H1376   0.990       .  S
O1356      H1381   0.990       .  S
O1357      H1377   0.990       .  S
Zr1358     O1359   2.434       .  S
Zr1358     O1364   2.371       .  S
Zr1358     O1363   2.372       .  S
O1359      H1375   0.990       .  S
O1360      H1374   0.990       .  S
O1360      H1384   0.990       .  S
Zr1361     O1557   2.424       .  S
Zr1361     O1574   2.380       .  S
Zr1361     O1367   2.385   1_556  S
Zr1362     O1560   2.423       .  S
Zr1362     O1578   2.381       .  S
O1363     Zr1565   2.372       .  S
O1363      H1371   0.966       .  S
O1364     Zr1565   2.372       .  S
O1364     Zr1571   2.380       .  S
O1366     Zr1548   2.373       .  S
O1366      H1370   0.966       .  S
O1367      H1372   0.966       .  S
O1368     Zr1548   2.373       .  S
O1368     Zr1572   2.381       .  S
O1385     Zr1397   2.443   1_554  S
O1385      C1387   1.287       .  A
O1386      C1597   1.285       .  A
C1387      O1596   1.285       .  A
C1387      C1449   1.435       .  S
O1388     Zr1400   2.443       .  S
O1389     Zr1424   2.424   1_554  S
O1389      C1390   1.285       .  A
C1390      C1459   1.435       .  S
O1391     Zr1400   2.442       .  S
O1392     Zr1423   2.424   1_554  S
C1393      C1461   1.435       .  S
O1394     Zr1397   2.442       .  S
O1394      C1396   1.287       .  A
O1395     Zr1424   2.424       .  S
O1395      C1396   1.285       .  A
C1396      C1454   1.434       .  S
Zr1397     O1398   2.434   1_556  S
Zr1397     O1609   2.435       .  S
Zr1397     O1403   2.373   1_556  S
Zr1397     O1404   2.371   1_556  S
Zr1397     O1637   2.372       .  S
Zr1397     O1639   2.372       .  S
O1398      H1441   0.990       .  S
O1399     Zr1607   2.435       .  S
O1399      H1440   0.990       .  S
O1399      H1444   0.990       .  S
Zr1400     O1402   2.433       .  S
Zr1400     O1428   2.373       .  S
Zr1400     O1430   2.373       .  S
O1401      H1442   0.990       .  S
O1401      H1445   0.990       .  S
O1402      H1435   0.990       .  S
O1404     Zr1424   2.382   1_554  S
O1404      H1431   0.966       .  S
O1405     Zr1417   2.442       .  S
O1406     Zr1634   2.422       .  S
C1407      C1458   1.434       .  S
O1408     Zr1420   2.443   1_556  S
O1408      C1620   1.287       .  A
O1409     Zr1423   2.424       .  S
O1409      C1620   1.285       .  A
C1410      O1618   1.287       .  A
C1410      O1619   1.285       .  A
C1410      C1657   1.435       .  S
O1411     Zr1420   2.442       .  S
O1411      C1623   1.286       .  A
O1412      C1623   1.284   1_556  A
C1413      O1621   1.286       .  A
C1413      O1622   1.284       .  A
C1413      C1451   1.434       .  S
O1414     Zr1417   2.442       .  S
O1415     Zr1633   2.423       .  S
O1415      C1416   1.285       .  A
C1416      C1456   1.434       .  S
Zr1417     O1419   2.434       .  S
Zr1417     O1429   2.372       .  S
Zr1417     O1427   2.372       .  S
O1418      H1438   0.990       .  S
O1418      H1443   0.990       .  S
O1419      H1439   0.990       .  S
Zr1420     O1631   2.434   1_554  S
Zr1420     O1422   2.435       .  S
Zr1420     O1636   2.372   1_554  S
Zr1420     O1635   2.372   1_554  S
Zr1420     O1430   2.373       .  S
Zr1420     O1428   2.371       .  S
O1421     Zr1630   2.434       .  S
O1421      H1437   0.990       .  S
O1422      H1436   0.990       .  S
O1422      H1446   0.990       .  S
Zr1423     O1625   2.423       .  S
Zr1423     O1636   2.380       .  S
Zr1423     O1428   2.385   1_556  S
Zr1424     O1616   2.421       .  S
Zr1424     O1637   2.380       .  S
O1425     Zr1630   2.372       .  S
O1425      H1433   0.966       .  S
O1426     Zr1630   2.371       .  S
O1426     Zr1633   2.380       .  S
O1427     Zr1607   2.372       .  S
O1427     Zr1634   2.380       .  S
O1428      H1432   0.965       .  S
O1429     Zr1607   2.372       .  S
O1429      H1434   0.965       .  S
C1447      C1620   1.435       .  S
C1447      C1448   1.206       .  T
C1449      C1450   1.206       .  T
C1451      C1452   1.205       .  T
C1453      C1664   1.205       .  T
C1454      C1663   1.205       .  T
C1457      C1458   1.205       .  T
C1461      C1462   1.206       .  T
C1465      C1466   1.205       .  T
C1469      C1470   1.205       .  T
O1471     Zr1483   2.444       .  S
O1471      C1473   1.287       .  A
O1472      C1473   1.285       .  A
C1473      C1672   1.435       .  S
O1474     Zr1486   2.443       .  S
O1474      C1476   1.287       .  A
O1475      C1476   1.285       .  A
C1476      C1674   1.435       .  S
O1477     Zr1486   2.442       .  S
O1477      C1479   1.287       .  A
O1478     Zr1509   2.423       .  S
C1479      C1679   1.434       .  S
O1480     Zr1483   2.442       .  S
O1480      C1482   1.287       .  A
O1481     Zr1510   2.423       .  S
C1482      C1665   1.434       .  S
Zr1483     O1484   2.434       .  S
Zr1483     O1489   2.372       .  S
Zr1483     O1490   2.371       .  S
O1484      H1527   0.990       .  S
O1485      H1526   0.990       .  S
O1485      H1530   0.990       .  S
Zr1486     O1487   2.436       .  S
Zr1486     O1490   2.370       .  S
Zr1486     O1489   2.372       .  S
O1487      H1528   0.990       .  S
O1487      H1531   0.990       .  S
O1488      H1521   0.990       .  S
O1490      H1517   0.966       .  S
O1491     Zr1503   2.442       .  S
O1491      C1493   1.286       .  A
O1492     Zr1510   2.422       .  S
C1493      C1676   1.433       .  S
O1494     Zr1506   2.444       .  S
O1494      C1496   1.287       .  A
O1495     Zr1509   2.423       .  S
C1496      C1670   1.435       .  S
O1497     Zr1506   2.442       .  S
O1497      C1499   1.286       .  A
O1498      C1499   1.285       .  A
C1499      C1667   1.434       .  S
O1500     Zr1503   2.442       .  S
O1500      C1502   1.287       .  A
O1501      C1502   1.285       .  A
C1502      C1678   1.434       .  S
Zr1503     O1504   2.435       .  S
Zr1503     O1511   2.372       .  S
Zr1503     O1512   2.371       .  S
O1504      H1524   0.990       .  S
O1504      H1529   0.990       .  S
O1505      H1525   0.990       .  S
Zr1506     O1507   2.434       .  S
Zr1506     O1512   2.371       .  S
Zr1506     O1511   2.372       .  S
O1507      H1523   0.990       .  S
O1508      H1522   0.990       .  S
O1508      H1532   0.990       .  S
Zr1509     O1514   2.384       .  S
Zr1510     O1513   2.381       .  S
O1511      H1519   0.966       .  S
O1514      H1518   0.966       .  S
O1515      H1520   0.966       .  S
O1533     Zr1545   2.442       .  S
O1533      C1535   1.287       .  A
O1534     Zr1571   2.423       .  S
C1535      C1680   1.434       .  S
O1536     Zr1548   2.443       .  S
O1536      C1538   1.287       .  A
O1537     Zr1572   2.424       .  S
O1537      C1538   1.285       .  A
C1538      C1658   1.435       .  S
O1539     Zr1548   2.441       .  S
O1539      C1541   1.287       .  A
O1540      C1541   1.285       .  A
C1541      C1660   1.435       .  S
O1542     Zr1545   2.442       .  S
O1542      C1544   1.287       .  A
O1543     Zr1572   2.424       .  S
O1543      C1544   1.285       .  A
C1544      C1677   1.434   1_655  S
Zr1545     O1546   2.434       .  S
Zr1545     O1551   2.373       .  S
Zr1545     O1552   2.371       .  S
O1546      H1589   0.990       .  S
O1547      H1588   0.990       .  S
O1547      H1592   0.990       .  S
Zr1548     O1549   2.436       .  S
Zr1548     O1552   2.370       .  S
Zr1548     O1551   2.372       .  S
O1549      H1590   0.990       .  S
O1549      H1593   0.990       .  S
O1550      H1583   0.990       .  S
O1552     Zr1572   2.383       .  S
O1552      H1579   0.966       .  S
O1553      C1555   1.287       .  A
C1555      C1662   1.433       .  S
O1556     Zr1568   2.443       .  S
O1556      C1558   1.287       .  A
O1557      C1558   1.285       .  A
C1558      C1673   1.435       .  S
O1559     Zr1568   2.440       .  S
O1559      C1561   1.286       .  A
C1561      C1675   1.433       .  S
O1562     Zr1565   2.442       .  S
O1563     Zr1571   2.422       .  S
C1564      C1663   1.434       .  S
Zr1565     O1567   2.435       .  S
Zr1565     O1577   2.372       .  S
Zr1565     O1575   2.372       .  S
O1566      H1586   0.990       .  S
O1566      H1591   0.990       .  S
O1567      H1587   0.990       .  S
Zr1568     O1569   2.434       .  S
Zr1568     O1574   2.371       .  S
Zr1568     O1573   2.372       .  S
O1569      H1585   0.990       .  S
O1570      H1584   0.990       .  S
O1570      H1594   0.990       .  S
Zr1571     O1577   2.385       .  S
O1573      H1581   0.966       .  S
O1576      H1580   0.966       .  S
O1577      H1582   0.966       .  S
O1595     Zr1607   2.443       .  S
O1595      C1597   1.287       .  A
C1597      C1659   1.435       .  S
O1598     Zr1610   2.443       .  S
O1599     Zr1634   2.423       .  S
O1599      C1600   1.285       .  A
C1600      C1669   1.435       .  S
O1601     Zr1610   2.443       .  S
O1602     Zr1633   2.423       .  S
C1603      C1671   1.435       .  S
O1604     Zr1607   2.442       .  S
O1604      C1606   1.287       .  A
O1605     Zr1634   2.424       .  S
O1605      C1606   1.285       .  A
C1606      C1664   1.434       .  S
Zr1607     O1608   2.435       .  S
Zr1607     O1613   2.373       .  S
Zr1607     O1614   2.371       .  S
O1608      H1651   0.990       .  S
O1609      H1650   0.990       .  S
O1609      H1654   0.990       .  S
Zr1610     O1612   2.433       .  S
Zr1610     O1638   2.373       .  S
Zr1610     O1640   2.373       .  S
O1611      H1652   0.990       .  S
O1611      H1655   0.990       .  S
O1612      H1645   0.990       .  S
O1614     Zr1634   2.383       .  S
O1614      H1641   0.966       .  S
O1615     Zr1627   2.442       .  S
C1617      C1668   1.434       .  S
O1618     Zr1630   2.444       .  S
O1619     Zr1633   2.423       .  S
O1621     Zr1630   2.442       .  S
C1623      C1661   1.433       .  S
O1624     Zr1627   2.442       .  S
O1625      C1626   1.285       .  A
C1626      C1666   1.434       .  S
Zr1627     O1629   2.434       .  S
Zr1627     O1639   2.372       .  S
Zr1627     O1637   2.372       .  S
O1628      H1648   0.990       .  S
O1628      H1653   0.990       .  S
O1629      H1649   0.990       .  S
Zr1630     O1632   2.435       .  S
Zr1630     O1640   2.373       .  S
Zr1630     O1638   2.371       .  S
O1631      H1647   0.990       .  S
O1632      H1646   0.990       .  S
O1632      H1656   0.990       .  S
Zr1633     O1638   2.385       .  S
O1635      H1643   0.966       .  S
O1638      H1642   0.965       .  S
O1639      H1644   0.966       .  S
C1657      C1658   1.206       .  T
C1659      C1660   1.206       .  T
C1661      C1662   1.205       .  T
C1667      C1668   1.205       .  T
C1671      C1672   1.206       .  T
C1675      C1676   1.205       .  T
C1679      C1680   1.205       .  T
