geometry optimzed in LAMMPS
_audit_creation_date              2020-12-01 
_audit_creation_method            'lammps2cif' 
_symmetry_space_group_name_H-M    'P1' 
_symmetry_Int_Tables_number       1 
_symmetry_cell_setting            triclinic 
loop_ 
_symmetry_equiv_pos_as_xyz 
  x,y,z 
_cell_length_a                    39.40680743 
_cell_length_b                    39.38129963496875 
_cell_length_c                    39.41014019491004 
_cell_angle_alpha                 89.43549280939946 
_cell_angle_beta                  89.88408405105197 
_cell_angle_gamma                 88.0864679844488 
loop_ 
_atom_site_label 
_atom_site_type_symbol 
_atom_site_fract_x 
_atom_site_fract_y 
_atom_site_fract_z 
_atom_site_charge 
N1          N  0.06996819  0.48918101  0.21012462    -0.06300
N2          N  0.08869206  0.48071159  0.18344538    -0.58400
N3          N  0.06363686  0.01507114  0.29260634    -0.06000
N4          N  0.08286085  0.02348956  0.31851677    -0.60500
N5          N  0.06773547  0.48192303  0.28844832    -0.05600
N6          N  0.08776663  0.46760702  0.31175990    -0.58400
N7          N  0.06617236  0.02297951  0.21535791    -0.05200
N8          N  0.08575573  0.03783897  0.19303099    -0.60900
C9          C  0.09943179  0.01173090  0.17547492     0.95900
C10         C  0.10027691  0.49411871  0.32873784     0.95700
N11         N  0.47223218  0.07338066  0.28965370    -0.06500
N12         N  0.45773598  0.09080929  0.31448129    -0.59000
N13         N  0.00819098  0.07898435  0.21522045    -0.04600
N14         N  0.01900163  0.09801972  0.18967409    -0.60200
N15         N  0.47742403  0.07900114  0.21213501    -0.06500
N16         N  0.46540562  0.09822830  0.18714366    -0.59300
N17         N  0.00590483  0.07235947  0.29373632    -0.04200
N18         N  0.01646478  0.08947717  0.32000908    -0.60300
Mn19       Mn  0.03675606  0.04819589  0.25442227     1.18400
C20         C  0.48435660  0.10134798  0.33263115     0.98000
C21         C  0.98980683  0.10878002  0.17392524     0.98600
N22         N  0.01032927  0.42641164  0.28240767    -0.06500
N23         N  0.01954245  0.40461842  0.30676092    -0.62800
N24         N  0.47991523  0.43249249  0.20160379    -0.05300
N25         N  0.47060286  0.41266812  0.17645068    -0.63500
N26         N  0.01485160  0.43120910  0.20418317    -0.06000
N27         N  0.02797387  0.41038587  0.18112190    -0.63100
N28         N  0.47358302  0.42852114  0.27877093    -0.04900
N29         N  0.45838631  0.40869446  0.30061436    -0.63800
Mn30       Mn  0.04173779  0.45635696  0.24626233     1.10700
C31         C  0.48407032  0.39426707  0.31832654     0.99200
C32         C  0.00066722  0.39800730  0.16514498     0.99300
N33         N  0.42479322  0.02286660  0.20435908    -0.06000
N34         N  0.40688399  0.03634443  0.17910997    -0.61400
N35         N  0.41769542  0.48578649  0.28096399    -0.05400
N36         N  0.39900684  0.47351212  0.30601637    -0.58100
N37         N  0.41886527  0.01788434  0.28185157    -0.06700
N38         N  0.39903835  0.02903344  0.30649510    -0.61000
N39         N  0.42233875  0.49059125  0.20285149    -0.05700
N40         N  0.40309760  0.48022979  0.17800642    -0.58200
Mn41       Mn  0.44772274  0.04886117  0.24699262     1.20200
Mn42       Mn  0.44781990  0.45883287  0.24074144     1.10100
Cl43       Cl  0.99223912  0.00289829  0.24913071    -0.86100
C44         C  0.39732639  0.00899588  0.16156812     0.96200
C45         C  0.38825882  0.50174303  0.32303703     0.96000
N46         N  0.48697696  0.21161192  0.06769929    -0.06300
N47         N  0.48001407  0.18721405  0.08971199    -0.58400
N48         N  0.00480731  0.28865138  0.06988703    -0.06000
N49         N  0.01233639  0.31417353  0.08981096    -0.60500
N50         N  0.47358861  0.28937222  0.06475195    -0.05600
N51         N  0.45811028  0.31219789  0.08439955    -0.58400
N52         N  0.01760878  0.21119003  0.06793502    -0.05200
N53         N  0.03308889  0.18896005  0.08835309    -0.60900
C54         C  0.00762938  0.17060113  0.10089590     0.95900
C55         C  0.48356322  0.33107748  0.09631254     0.95700
N56         N  0.07016551  0.29372216  0.47922370    -0.06500
N57         N  0.08721164  0.31817684  0.46486302    -0.59000
N58         N  0.07551955  0.21974923  0.01249869    -0.04600
N59         N  0.09676565  0.19481684  0.02245309    -0.60200
N60         N  0.07741926  0.21647571  0.48718466    -0.06500
N61         N  0.09981339  0.19226331  0.47917045    -0.59300
N62         N  0.06210829  0.29749819  0.01625622    -0.04200
N63         N  0.07816658  0.32248144  0.03043714    -0.60300
Mn64       Mn  0.04066271  0.25407197  0.04236713     1.18400
C65         C  0.09498053  0.33826496  0.49090077     0.98000
C66         C  0.11174978  0.18110713  0.50957836     0.98600
N67         N  0.41757470  0.27994332  0.00656687    -0.06500
N68         N  0.39552598  0.30440738  0.01536859    -0.62800
N69         N  0.42808381  0.20755898  0.48038094    -0.05300
N70         N  0.40988039  0.18156682  0.47084754    -0.63500
N71         N  0.42930471  0.20164771  0.01052885    -0.06000
N72         N  0.41004541  0.17686370  0.02185075    -0.63100
N73         N  0.42163566  0.28558577  0.47555082    -0.04900
N74         N  0.39961474  0.30775429  0.46213023    -0.63800
Mn75       Mn  0.45099629  0.24552769  0.03834955     1.10700
C76         C  0.38518860  0.32296384  0.48931116     0.99200
C77         C  0.40049735  0.16072687  0.99317597     0.99300
N78         N  0.02476244  0.20895287  0.42719954    -0.06000
N79         N  0.03868622  0.18244879  0.41149381    -0.61400
N80         N  0.47995041  0.28746241  0.41885958    -0.05400
N81         N  0.46927529  0.31212546  0.39776447    -0.58100
N82         N  0.02093379  0.28658654  0.42100543    -0.06700
N83         N  0.03439776  0.31012728  0.40185285    -0.61000
N84         N  0.48502827  0.20878295  0.42460106    -0.05700
N85         N  0.47558818  0.18211648  0.40753066    -0.58200
Mn86       Mn  0.04896907  0.25087055  0.45315732     1.20200
Mn87       Mn  0.45273672  0.24748942  0.44886046     1.10100
Cl88       Cl  0.99988535  0.25206921  0.49513495    -0.86100
C89         C  0.01159287  0.16633616  0.39914630     0.96200
C90         C  0.49864346  0.32674055  0.38762336     0.96000
N91         N  0.27631773  0.42172893  0.48917166    -0.06300
N92         N  0.30024473  0.39939806  0.47980490    -0.58400
N93         N  0.20014198  0.42772331  0.00865853    -0.06000
N94         N  0.17311431  0.41043854  0.01690591    -0.60500
N95         N  0.19833398  0.43455726  0.48775579    -0.05600
N96         N  0.17236124  0.41641105  0.47825366    -0.58400
N97         N  0.27758304  0.42063350  0.01506239    -0.05200
N98         N  0.30009692  0.39940172  0.02881920    -0.60900
C99         C  0.31374202  0.38805964  0.50962594     0.95900
C100        C  0.15648929  0.40890085  0.50793995     0.95700
N101        N  0.20633062  0.01248743  0.07802949    -0.06500
N102        N  0.18147968  0.02317438  0.09839293    -0.59000
N103        N  0.27832735  0.47223346  0.07382358    -0.04600
N104        N  0.30344088  0.45782720  0.09166531    -0.60200
N105        N  0.28466786  0.00704428  0.07718621    -0.06500
N106        N  0.31175011  0.01604304  0.09379195    -0.59300
N107        N  0.20040597  0.47834281  0.06795971    -0.04200
N108        N  0.17439486  0.46597933  0.08424428    -0.60300
Mn109      Mn  0.23903818  0.44903717  0.04202113     1.18400
C110        C  0.16595633  0.99402878  0.10729810     0.98000
C111        C  0.31986080  0.48469276  0.10425842     0.98600
N112        N  0.20779310  0.48831724  0.42686330    -0.06500
N113        N  0.18169804  0.48069042  0.40757153    -0.62800
N114        N  0.28531823  0.00524703  0.42092617    -0.05300
N115        N  0.31001548  0.01171847  0.39947622    -0.63500
N116        N  0.28511823  0.47416346  0.42865266    -0.06000
N117        N  0.30639214  0.45752203  0.40821356    -0.63100
N118        N  0.20818817  0.01864172  0.42393378    -0.04900
N119        N  0.18456476  0.03396566  0.40510198    -0.63800
Mn120      Mn  0.24163467  0.45381785  0.45728115     1.10700
C121        C  0.16454793  0.00858635  0.39580440     0.99200
C122        C  0.32548150  0.48217617  0.39466651     0.99300
N123        N  0.28882834  0.06663247  0.02582829    -0.06000
N124        N  0.31327499  0.08381215  0.03990948    -0.61400
N125        N  0.21788233  0.07754221  0.47484920    -0.05400
N126        N  0.19406057  0.09804957  0.46192958    -0.58100
N127        N  0.21125206  0.07277686  0.02482785    -0.06700
N128        N  0.18811631  0.09335847  0.03841321    -0.61000
N129        N  0.29518111  0.06594647  0.47205857    -0.05700
N130        N  0.31922917  0.08343115  0.45724472    -0.58200
Mn131      Mn  0.24751375  0.04039360  0.05220894     1.20200
Mn132      Mn  0.25190013  0.04227948  0.44729010     1.10100
Cl133      Cl  0.24775208  0.00066833  0.49628886    -0.86100
C134        C  0.33586596  0.09734008  0.48334541     0.96200
C135        C  0.18041967  0.11358763  0.48933744     0.96000
C136        C  0.35757702  0.34896240  0.48617922    -0.16600
C137        C  0.34186656  0.36263960  0.51318031    -0.31800
H138        H  0.34967195  0.35664077  0.46075869     0.12400
H139        H  0.35214281  0.35420570  0.03200288     0.13000
C140        C  0.37669420  0.13859749  0.50461990    -0.16600
C141        C  0.36259410  0.12267875  0.47844820    -0.31800
H142        H  0.36964306  0.13157576  0.53035212     0.12400
H143        H  0.36501596  0.12841275  0.04279155     0.13000
C144        C  0.12879952  0.38497984  0.51221338    -0.16600
C145        C  0.11723400  0.36723836  0.48626116    -0.31800
H146        H  0.12415955  0.37374136  0.95588274     0.12400
H147        H  0.12645967  0.37228716  0.46076654     0.13000
C148        C  0.13865780  0.15458931  0.51383019    -0.16600
C149        C  0.15268325  0.13928652  0.48674431    -0.31800
H150        H  0.14734351  0.14801579  0.53927584     0.12400
H151        H  0.13886037  0.14260066  0.04091250     0.13000
C152        C  0.35065504  0.47665117  0.36713613    -0.16600
C153        C  0.36583930  0.50329003  0.35297968    -0.31800
H154        H  0.35533971  0.45120799  0.35740905     0.12400
H155        H  0.35609615  0.02733476  0.35797316     0.13000
C156        C  0.13587277  0.01396012  0.37212499    -0.16600
C157        C  0.12626435  0.48989494  0.35591423    -0.31800
H158        H  0.12987105  0.03980143  0.36362513     0.12400
H159        H  0.13267758  0.46416579  0.36442241     0.13000
C160        C  0.12478623  0.01670149  0.14872631    -0.16600
C161        C  0.13811721  0.99054753  0.13162692    -0.31800
H162        H  0.13336216  0.04222087  0.14384083     0.12400
H163        H  0.12162157  0.46535170  0.12691118     0.13000
C164        C  0.37243608  0.01102861  0.13427671    -0.16600
C165        C  0.34942673  0.48235031  0.12688107    -0.31800
H166        H  0.36355775  0.03614554  0.12590148     0.12400
H167        H  0.35861644  0.45735464  0.13530915     0.13000
C168        C  0.48094352  0.12513326  0.36080350    -0.16600
C169        C  0.01394203  0.13708625  0.37645290    -0.31800
H170        H  0.45557923  0.13409583  0.36796168     0.12700
H171        H  0.03895896  0.12792927  0.36837191     0.13000
C172        C  0.47785169  0.36860769  0.34488423    -0.16600
C173        C  0.50302824  0.35447954  0.36293760    -0.31800
H174        H  0.45201604  0.36068875  0.34901399     0.12400
H175        H  0.03696878  0.36098425  0.35623142     0.13000
C176        C  0.47839555  0.35883288  0.12157186    -0.16600
C177        C  0.00364061  0.37117560  0.13869276    -0.31800
H178        H  0.95144863  0.36205613  0.13333893     0.12400
H179        H  0.53017374  0.36838078  0.12768494     0.13000
C180        C  0.98654277  0.13142154  0.14407454    -0.16600
C181        C  0.01286057  0.14495667  0.12812965    -0.31800
H182        H  0.46486580  0.14136801  0.13486795     0.12400
H183        H  0.03859894  0.13874105  0.13649501     0.13000
N184        N  0.06754432  0.48580050  0.70728323    -0.06300
N185        N  0.08598156  0.47348048  0.68210293    -0.58400
N186        N  0.07388259  0.01643545  0.78608233    -0.06000
N187        N  0.09392062  0.02616880  0.81096288    -0.60500
N188        N  0.07024089  0.48399983  0.78516930    -0.05600
N189        N  0.09073144  0.47053545  0.80847994    -0.58400
N190        N  0.07214013  0.01792425  0.70747086    -0.05200
N191        N  0.09213678  0.02887815  0.68293651    -0.60900
C192        C  0.10359100  0.99992311  0.66783480     0.95900
C193        C  0.10379292  0.49760734  0.82393084     0.95700
N194        N  0.47851681  0.07435624  0.78671958    -0.06500
N195        N  0.46590353  0.09155579  0.81249941    -0.59000
N196        N  0.01373245  0.07634756  0.70841423    -0.04600
N197        N  0.02265845  0.09634118  0.68281490    -0.60200
N198        N  0.47805562  0.07626457  0.70907373    -0.06500
N199        N  0.46484325  0.09574439  0.68483555    -0.59300
N200        N  0.01629651  0.07500993  0.78702409    -0.04200
N201        N  0.02758226  0.09420500  0.81164984    -0.60300
Mn202      Mn  0.04500987  0.04739933  0.74716629     1.18400
C203        C  0.49365051  0.10202164  0.82863269     0.98000
C204        C  0.99242391  0.10732150  0.66921876     0.98600
N205        N  0.01449217  0.42949110  0.78594045    -0.06500
N206        N  0.02822554  0.41151446  0.81098196    -0.62800
N207        N  0.48074789  0.43059268  0.70607276    -0.05300
N208        N  0.47119093  0.41140075  0.68047906    -0.63500
N209        N  0.01284982  0.43000822  0.70800242    -0.06000
N210        N  0.02563339  0.41167300  0.68294807    -0.63100
N211        N  0.48017707  0.42967917  0.78477866    -0.04900
N212        N  0.46966151  0.40967652  0.80951681    -0.63800
Mn213      Mn  0.04176339  0.45671580  0.74655003     1.10700
C214        C  0.49895584  0.39832729  0.82434315     0.99200
C215        C  0.99822089  0.39919943  0.66759638     0.99300
N216        N  0.42250263  0.02290159  0.70894469    -0.06000
N217        N  0.40551759  0.03691989  0.68343706    -0.61400
N218        N  0.42238267  0.48834910  0.78627981    -0.05400
N219        N  0.40317985  0.47877878  0.81218128    -0.58100
N220        N  0.42172125  0.02205461  0.78664061    -0.06700
N221        N  0.40323955  0.03581563  0.81112243    -0.61000
N222        N  0.42300666  0.48921983  0.70731166    -0.05700
N223        N  0.40429509  0.47946580  0.68163939    -0.58200
Mn224      Mn  0.44972382  0.04941327  0.74786913     1.20200
Mn225      Mn  0.45038571  0.45830683  0.74610933     1.10100
Cl226      Cl  0.99919633  0.00214850  0.74843412    -0.86100
C227        C  0.39365332  0.01013690  0.66681522     0.96200
C228        C  0.39311966  0.50868852  0.82686706     0.96000
N229        N  0.48666813  0.21505048  0.57011128    -0.06300
N230        N  0.47869072  0.18954480  0.59044518    -0.58400
N231        N  0.00578237  0.29631607  0.56691420    -0.06000
N232        N  0.01248824  0.32160147  0.58744286    -0.60500
N233        N  0.47669689  0.29300812  0.56552323    -0.05600
N234        N  0.46106588  0.31624115  0.58430661    -0.58400
N235        N  0.01659227  0.21890271  0.57103020    -0.05200
N236        N  0.03171956  0.19643254  0.59135626    -0.60900
C237        C  0.00640257  0.17698261  0.60214575     0.95900
C238        C  0.48645006  0.33441990  0.59680259     0.95700
N239        N  0.06344607  0.29989918  0.98298554    -0.06500
N240        N  0.08095547  0.32655183  0.97382782    -0.59000
N241        N  0.07595519  0.22029458  0.52023092    -0.04600
N242        N  0.09711868  0.19839891  0.53553443    -0.60200
N243        N  0.07661607  0.22295321  0.97926657    -0.06500
N244        N  0.09813362  0.20057432  0.96589775    -0.59300
N245        N  0.06722923  0.29834507  0.51211894    -0.04200
N246        N  0.08295723  0.32614793  0.52089976    -0.60300
Mn247      Mn  0.04194085  0.25917091  0.54337154     1.18400
C248        C  0.08959892  0.34050928  0.00380230     0.98000
C249        C  0.11057032  0.18321701  0.99290163     0.98600
N250        N  0.42079606  0.28678937  0.50892864    -0.06500
N251        N  0.39803688  0.31010819  0.51885599    -0.62800
N252        N  0.43094918  0.20081821  0.97715269    -0.05300
N253        N  0.41323807  0.17573682  0.96525515    -0.63500
N254        N  0.42922194  0.20883650  0.51374306    -0.06000
N255        N  0.41191085  0.18409264  0.52747832    -0.63100
N256        N  0.41845463  0.27747248  0.97330492    -0.04900
N257        N  0.39747336  0.29981733  0.95879174    -0.63800
Mn258      Mn  0.45269231  0.25079121  0.54033831     1.10700
C259        C  0.38336191  0.31643199  0.98511588     0.99200
C260        C  0.40011878  0.16710308  0.50061816     0.99300
N261        N  0.02452276  0.21642734  0.92200207    -0.06000
N262        N  0.04153319  0.19417808  0.90301420    -0.61400
N263        N  0.47293933  0.28457565  0.91803350    -0.05400
N264        N  0.45648577  0.30724184  0.89875681    -0.58100
N265        N  0.00890812  0.29360322  0.92411312    -0.06700
N266        N  0.01551354  0.32110033  0.90623321    -0.61000
N267        N  0.48792666  0.20745397  0.92163272    -0.05700
N268        N  0.48138547  0.18005542  0.90429616    -0.58200
Mn269      Mn  0.04407735  0.25879924  0.95135792     1.20200
Mn270      Mn  0.45212722  0.24220048  0.94701585     1.10100
Cl271      Cl  0.99728089  0.24967592  0.99530467    -0.86100
C272        C  0.01710915  0.17402611  0.89131733     0.96200
C273        C  0.48129200  0.32723273  0.88724424     0.96000
N274        N  0.28050669  0.42166513  0.98186557    -0.06300
N275        N  0.30550301  0.40054993  0.97223215    -0.58400
N276        N  0.19838376  0.43733683  0.52098866    -0.06000
N277        N  0.17268501  0.42164437  0.53472278    -0.60500
N278        N  0.20254967  0.43061260  0.97550793    -0.05600
N279        N  0.17749517  0.41536074  0.96042833    -0.58400
N280        N  0.27535381  0.42388836  0.52244914    -0.05200
N281        N  0.29841539  0.40314734  0.53643280    -0.60900
C282        C  0.31735184  0.38706857  0.00204343     0.95900
C283        C  0.15922123  0.40310891  0.98649441     0.95700
N284        N  0.21390625  0.02851551  0.56943422    -0.06500
N285        N  0.19105038  0.04475246  0.58853817    -0.59000
N286        N  0.28194952  0.48183045  0.57450586    -0.04600
N287        N  0.30540328  0.46616421  0.59323582    -0.60200
N288        N  0.29171132  0.01546922  0.56655211    -0.06500
N289        N  0.31830444  0.02328140  0.58492694    -0.59300
N290        N  0.20478497  0.49561555  0.57275545    -0.04200
N291        N  0.17819483  0.48903030  0.59172045    -0.60300
Mn292      Mn  0.23999192  0.45915507  0.54830342     1.18400
C293        C  0.17271429  0.01947509  0.60221040     0.98000
C294        C  0.32504195  0.49156346  0.60318010     0.98600
N295        N  0.20980968  0.49104185  0.92341555    -0.06500
N296        N  0.18534041  0.48363593  0.90200654    -0.62800
N297        N  0.28777359  0.01354341  0.93143973    -0.05300
N298        N  0.31299458  0.02224595  0.91109024    -0.63500
N299        N  0.28727133  0.48136959  0.92894917    -0.06000
N300        N  0.31055437  0.46682975  0.90946762    -0.63100
N301        N  0.20959544  0.02296343  0.93084320    -0.04900
N302        N  0.18728648  0.03859853  0.91054119    -0.63800
Mn303      Mn  0.24506177  0.45555894  0.95163805     1.10700
C304        C  0.17040588  0.01303918  0.89627966     0.99200
C305        C  0.32866685  0.49285481  0.89804456     0.99300
N306        N  0.29661202  0.06903344  0.50527188    -0.06000
N307        N  0.32178262  0.08879299  0.51358688    -0.61400
N308        N  0.21198929  0.07621697  0.99155495    -0.05400
N309        N  0.18891751  0.09956822  0.98188914    -0.58100
N310        N  0.21887053  0.08029258  0.50806874    -0.06700
N311        N  0.19561968  0.10282648  0.51849226    -0.61000
N312        N  0.29071634  0.06853623  0.99248774    -0.05700
N313        N  0.31655357  0.08736728  0.98335790    -0.58200
Mn314      Mn  0.25555198  0.04921707  0.53818839     1.20200
Mn315      Mn  0.25028945  0.04627940  0.96067749     1.10100
Cl316      Cl  0.24590887  0.99798016  0.00388086    -0.86100
C317        C  0.33055095  0.09652560  0.01328665     0.96200
C318        C  0.17426645  0.10982941  0.01152565     0.96000
C319        C  0.35794949  0.34412824  0.98020056    -0.16600
C320        C  0.34435065  0.36087578  0.00629214    -0.31800
H321        H  0.34990000  0.35042192  0.95448074     0.12400
H322        H  0.34973300  0.35503517  0.53862868     0.13000
C323        C  0.37535296  0.13350499  0.99068315    -0.16600
C324        C  0.35878285  0.12039853  0.01732262    -0.31800
H325        H  0.36896442  0.12526350  0.96532481     0.12400
H326        H  0.36947766  0.12959716  0.45264789     0.13000
C327        C  0.13023565  0.38112412  0.98160039    -0.16600
C328        C  0.11354965  0.36796180  0.00792766    -0.31800
H329        H  0.12000875  0.37964905  0.53780498     0.12400
H330        H  0.11985255  0.37523450  0.03362621     0.13000
C331        C  0.13592690  0.15516749  0.98913828    -0.16600
C332        C  0.14795543  0.13698926  0.01546513    -0.31800
H333        H  0.14508721  0.14953633  0.96371665     0.12400
H334        H  0.14376040  0.14597586  0.46139605     0.13000
C335        C  0.35544076  0.48768866  0.87211333    -0.16600
C336        C  0.36969817  0.51343289  0.85588828    -0.31800
H337        H  0.36193040  0.46177419  0.86467863     0.12400
H338        H  0.35934627  0.03923426  0.86369190     0.13000
C339        C  0.14415931  0.01850967  0.86952888    -0.16600
C340        C  0.12981734  0.49377141  0.85111324    -0.31800
H341        H  0.13761493  0.04441975  0.86167177     0.12400
H342        H  0.13714210  0.46797420  0.85872051     0.13000
C343        C  0.12886857  0.99765700  0.64019917    -0.16600
C344        C  0.14498260  0.02447434  0.62727460    -0.31800
H345        H  0.13554692  0.97228663  0.63125625     0.12400
H346        H  0.13271061  0.55108145  0.63496164     0.13000
C347        C  0.37114130  0.01427206  0.63740967    -0.16600
C348        C  0.35336367  0.48644392  0.62684826    -0.31800
H349        H  0.36481507  0.03997338  0.62873968     0.12400
H350        H  0.35897862  0.46094841  0.63649403     0.13000
C351        C  0.49116238  0.12474626  0.85757422    -0.16600
C352        C  0.02292897  0.14657780  0.86670450    -0.31800
H353        H  0.46587486  0.13030965  0.86753143     0.12700
H354        H  0.04823816  0.14193859  0.85641832     0.13000
C355        C  0.50190639  0.37311822  0.85179669    -0.16600
C356        C  0.47566999  0.35543951  0.86301030    -0.31800
H357        H  0.52726806  0.36741996  0.86151053     0.12400
H358        H  0.95346005  0.36426763  0.85993520     0.13000
C359        C  0.48036636  0.36145712  0.62223085    -0.16600
C360        C  0.00160752  0.37523328  0.63888171    -0.31800
H361        H  0.94980482  0.36508357  0.63292621     0.12400
H362        H  0.53177379  0.37085332  0.62966542     0.13000
C363        C  0.98716655  0.13199778  0.64106595    -0.16600
C364        C  0.01234772  0.14932996  0.62730603    -0.31800
H365        H  0.46266236  0.13958991  0.63231009     0.12400
H366        H  0.03822610  0.14436950  0.63597582     0.13000
N367        N  0.06762153  0.98974965  0.21211196    -0.06300
N368        N  0.08856097  0.98131521  0.18706855    -0.58400
N369        N  0.06783400  0.51528560  0.29086520    -0.06000
N370        N  0.08816839  0.52417347  0.31578228    -0.60500
N371        N  0.06353352  0.98178282  0.28986720    -0.05600
N372        N  0.08234404  0.96692617  0.31370360    -0.58400
N373        N  0.06932265  0.52242341  0.21368567    -0.05200
N374        N  0.08734899  0.53718567  0.19002647    -0.60900
C375        C  0.09912225  0.51107132  0.17131529     0.95900
C376        C  0.09412794  0.99308799  0.33148484     0.95700
N377        N  0.47273984  0.57445546  0.28945098    -0.06500
N378        N  0.45980188  0.59328060  0.31418928    -0.59000
N379        N  0.01317249  0.58035605  0.21390541    -0.04600
N380        N  0.02464407  0.60141462  0.19029869    -0.60200
N381        N  0.47604396  0.57935965  0.21152629    -0.06500
N382        N  0.46423119  0.59897801  0.18671648    -0.59300
N383        N  0.00996649  0.57306931  0.29213872    -0.04200
N384        N  0.02022847  0.59055286  0.31833014    -0.60300
Mn385      Mn  0.04085815  0.54842737  0.25290527     1.18400
C386        C  0.48749889  0.60345703  0.33113229     0.98000
C387        C  0.99591747  0.61358158  0.17465359     0.98600
N388        N  0.00767522  0.92655690  0.28347174    -0.06500
N389        N  0.01747357  0.90547558  0.30816693    -0.62800
N390        N  0.48313779  0.93191886  0.20269253    -0.05300
N391        N  0.47393457  0.91215846  0.17750245    -0.63500
N392        N  0.01265975  0.93309945  0.20555191    -0.06000
N393        N  0.02702405  0.91527551  0.18094299    -0.63100
N394        N  0.47676092  0.92820794  0.28008018    -0.04900
N395        N  0.46255959  0.90856597  0.30284685    -0.63800
Mn396      Mn  0.03871606  0.95693053  0.24768870     1.10700
C397        C  0.48909225  0.89560666  0.32061289     0.99200
C398        C  0.00063672  0.90340510  0.16345875     0.99300
N399        N  0.42103411  0.52390592  0.20490678    -0.06000
N400        N  0.40075607  0.53698789  0.18114807    -0.61400
N401        N  0.41899802  0.98456230  0.28029430    -0.05400
N402        N  0.39889409  0.97226486  0.30416195    -0.58100
N403        N  0.41811888  0.51909139  0.28280274    -0.06700
N404        N  0.40004117  0.53021494  0.30874371    -0.61000
N405        N  0.42592183  0.98956871  0.20238772    -0.05700
N406        N  0.40878939  0.97954738  0.17590101    -0.58200
Mn407      Mn  0.44629522  0.54987462  0.24713248     1.20200
Mn408      Mn  0.45050607  0.95788079  0.24119223     1.10100
Cl409      Cl  0.99599975  0.50326457  0.24728063    -0.86100
C410        C  0.39001310  0.50937754  0.16453990     0.96200
C411        C  0.38676828  0.00052686  0.32024517     0.96000
N412        N  0.48751105  0.71248513  0.06856651    -0.06300
N413        N  0.48052054  0.68788663  0.09025572    -0.58400
N414        N  0.00980475  0.79779086  0.06431622    -0.06000
N415        N  0.01709026  0.82424779  0.08325061    -0.60500
N416        N  0.47443340  0.79020244  0.06524523    -0.05600
N417        N  0.45950453  0.81299559  0.08534870    -0.58400
N418        N  0.02319722  0.72015906  0.07033501    -0.05200
N419        N  0.03933008  0.69880799  0.09137377    -0.60900
C420        C  0.01415314  0.68121365  0.10596016     0.95900
C421        C  0.48534296  0.83163223  0.09690502     0.95700
N422        N  0.07010877  0.79421861  0.48110202    -0.06500
N423        N  0.08695613  0.81912706  0.46734751    -0.59000
N424        N  0.07742289  0.72245518  0.00945124    -0.04600
N425        N  0.10045701  0.69928397  0.01984111    -0.60200
N426        N  0.07757401  0.71680110  0.48782770    -0.06500
N427        N  0.10003729  0.69266636  0.47973178    -0.59300
N428        N  0.06410191  0.80044865  0.00411372    -0.04200
N429        N  0.08205911  0.82685025  0.01228839    -0.60300
Mn430      Mn  0.04461609  0.76031988  0.03798134     1.18400
C431        C  0.09454707  0.83866994  0.49386173     0.98000
C432        C  0.11140038  0.68093297  0.51014835     0.98600
N433        N  0.41768475  0.77992316  0.00771512    -0.06500
N434        N  0.39630494  0.80499081  0.01635814    -0.62800
N435        N  0.43247478  0.70937650  0.47220637    -0.05300
N436        N  0.41583832  0.68472661  0.45797189    -0.63500
N437        N  0.42896235  0.70156425  0.01284520    -0.06000
N438        N  0.40958568  0.67703763  0.02466148    -0.63100
N439        N  0.42587380  0.78715194  0.47086610    -0.04900
N440        N  0.40494500  0.80999853  0.45672248    -0.63800
Mn441      Mn  0.45126848  0.74600794  0.03959439     1.10700
C442        C  0.38810878  0.82383759  0.48335553     0.99200
C443        C  0.40005272  0.66032212  0.99628778     0.99300
N444        N  0.02596536  0.71000720  0.42700758    -0.06000
N445        N  0.04036742  0.68405073  0.41081005    -0.61400
N446        N  0.48853232  0.78934343  0.41909932    -0.05400
N447        N  0.47834105  0.81436099  0.39846826    -0.58100
N448        N  0.02147685  0.78766823  0.42207504    -0.06700
N449        N  0.03474552  0.81160619  0.40327018    -0.61000
N450        N  0.49271804  0.71114401  0.42262945    -0.05700
N451        N  0.48313452  0.68565143  0.40403751    -0.58200
Mn452      Mn  0.04946303  0.75168227  0.45401257     1.20200
Mn453      Mn  0.45932034  0.74970656  0.44547665     1.10100
Cl454      Cl  0.99989858  0.75216058  0.49545257    -0.86100
C455        C  0.01363415  0.66794557  0.39769431     0.96200
C456        C  0.50776914  0.82902114  0.38928099     0.96000
N457        N  0.27671082  0.92084076  0.48470701    -0.06300
N458        N  0.30038347  0.89858256  0.47444172    -0.58400
N459        N  0.20263128  0.92831409  0.01778952    -0.06000
N460        N  0.17682621  0.91170793  0.02999130    -0.60500
N461        N  0.19862156  0.93303586  0.48791643    -0.05600
N462        N  0.17215111  0.91496422  0.47996947    -0.58400
N463        N  0.27980407  0.92145306  0.01842685    -0.05200
N464        N  0.30339238  0.90088693  0.03131738    -0.60900
C465        C  0.31571027  0.88806810  0.50369780     0.95900
C466        C  0.15793944  0.90756740  0.51046771     0.95700
N467        N  0.20165736  0.51138265  0.07154658    -0.06500
N468        N  0.17621713  0.52228920  0.09096784    -0.59000
N469        N  0.28351418  0.97385006  0.07546015    -0.04600
N470        N  0.30986854  0.95933057  0.09111068    -0.60200
N471        N  0.27957069  0.50544166  0.07563494    -0.06500
N472        N  0.30514431  0.51450217  0.09444219    -0.59300
N473        N  0.20584586  0.97932041  0.07533401    -0.04200
N474        N  0.18102461  0.96662101  0.09315114    -0.60300
Mn475      Mn  0.24301485  0.95022059  0.04719594     1.18400
C476        C  0.15944840  0.49350565  0.09832870     0.98000
C477        C  0.32719256  0.98608309  0.10221680     0.98600
N478        N  0.20314974  0.98581948  0.42619293    -0.06500
N479        N  0.17589062  0.97816317  0.40863013    -0.62800
N480        N  0.29072834  0.50697891  0.42759723    -0.05300
N481        N  0.31574710  0.51320591  0.40639610    -0.63500
N482        N  0.28073957  0.97233109  0.42294330    -0.06000
N483        N  0.30237584  0.95574421  0.40281997    -0.63100
N484        N  0.21338457  0.52109975  0.42479630    -0.04900
N485        N  0.19101322  0.53632881  0.40424204    -0.63800
Mn486      Mn  0.23952643  0.95202143  0.45459133     1.10700
C487        C  0.17136625  0.51093136  0.39369154     0.99200
C488        C  0.32056643  0.98068540  0.38846972     0.99300
N489        N  0.28729903  0.56591597  0.02517851    -0.06000
N490        N  0.31094474  0.58318690  0.04055926    -0.61400
N491        N  0.22016095  0.57921820  0.47814936    -0.05400
N492        N  0.19713032  0.59997915  0.46419959    -0.58100
N493        N  0.21012869  0.57236817  0.02090258    -0.06700
N494        N  0.18741521  0.59327614  0.03455620    -0.61000
N495        N  0.29803057  0.56789330  0.48208053    -0.05700
N496        N  0.32380551  0.58654508  0.47199502    -0.58200
Mn497      Mn  0.24449848  0.53926322  0.04896316     1.20200
Mn498      Mn  0.25609697  0.54441948  0.45229517     1.10100
Cl499      Cl  0.24765541  0.50155869  0.50016191    -0.86100
C500        C  0.33733119  0.59779005  0.50150917     0.96200
C501        C  0.18135055  0.61446903  0.49109438     0.96000
C502        C  0.36040973  0.84978717  0.47962516    -0.16600
C503        C  0.34404287  0.86279726  0.50660777    -0.31800
H504        H  0.35316483  0.85803589  0.45418770     0.12400
H505        H  0.35536153  0.85606353  0.03284567     0.13000
C506        C  0.37888233  0.63935482  0.47947268    -0.16600
C507        C  0.36437487  0.62296845  0.50540563    -0.31800
H508        H  0.37224462  0.63286091  0.45365125     0.12400
H509        H  0.36210308  0.62912499  0.04564919     0.13000
C510        C  0.13029287  0.88377839  0.51584454    -0.16600
C511        C  0.11648962  0.86789288  0.48975237    -0.31800
H512        H  0.12228864  0.87368272  0.02981049     0.12400
H513        H  0.12397732  0.87442816  0.46401129     0.13000
C514        C  0.13818703  0.65437311  0.51452619    -0.16600
C515        C  0.15352041  0.63996624  0.48763778    -0.31800
H516        H  0.14586007  0.64713415  0.54012444     0.12400
H517        H  0.14084707  0.64452774  0.03808897     0.13000
C518        C  0.34687841  0.97525871  0.36204776    -0.16600
C519        C  0.36237304  0.00204088  0.34854620    -0.31800
H520        H  0.35262279  0.94975552  0.35296717     0.12400
H521        H  0.36053726  0.52854357  0.36297890     0.13000
C522        C  0.14330816  0.51593993  0.36872194    -0.16600
C523        C  0.11918029  0.98813547  0.35901065    -0.31800
H524        H  0.13747981  0.54162841  0.35973407     0.12400
H525        H  0.12575816  0.96222484  0.36689700     0.13000
C526        C  0.12212532  0.51601170  0.14267020    -0.16600
C527        C  0.13191360  0.49033901  0.12292601    -0.31800
H528        H  0.13237236  0.54103166  0.13880135     0.12400
H529        H  0.12940783  0.96509501  0.13666072     0.13000
C530        C  0.36358373  0.51068012  0.13839631    -0.16600
C531        C  0.35766681  0.98310904  0.12312552    -0.31800
H532        H  0.35411928  0.53562646  0.13008224     0.12400
H533        H  0.36624360  0.95796986  0.13168368     0.13000
C534        C  0.48620557  0.62819178  0.35876557    -0.16600
C535        C  0.01662799  0.63899198  0.37458815    -0.31800
H536        H  0.46132410  0.63784815  0.36675908     0.12700
H537        H  0.04183503  0.62992588  0.36701588     0.13000
C538        C  0.48484611  0.87051906  0.34793316    -0.16600
C539        C  0.51130568  0.85695946  0.36478898    -0.31800
H540        H  0.45940964  0.86206736  0.35328103     0.12400
H541        H  0.03646505  0.86221321  0.35701184     0.13000
C542        C  0.48098755  0.85917816  0.12249377    -0.16600
C543        C  0.00569814  0.87946428  0.13485440    -0.31800
H544        H  0.95433313  0.86885603  0.12792496     0.12400
H545        H  0.53306248  0.86793082  0.12834936     0.13000
C546        C  0.99341756  0.63889409  0.14667585    -0.16600
C547        C  0.01972255  0.65481134  0.13276315    -0.31800
H548        H  0.46460552  0.64245302  0.13461753     0.12400
H549        H  0.04540188  0.64896702  0.14151186     0.13000
N550        N  0.07163694  0.98450411  0.70754413    -0.06300
N551        N  0.09108905  0.97209227  0.68304432    -0.58400
N552        N  0.07053342  0.51738547  0.78593787    -0.06000
N553        N  0.09149615  0.52725438  0.80999792    -0.60500
N554        N  0.07294537  0.98302741  0.78567461    -0.05600
N555        N  0.09211381  0.96947122  0.80999086    -0.58400
N556        N  0.06784721  0.51919822  0.70735970    -0.05200
N557        N  0.08679266  0.53033537  0.68210123    -0.60900
C558        C  0.09768885  0.50138291  0.66656626     0.95900
C559        C  0.10500854  0.99646200  0.82568097     0.95700
N560        N  0.47880114  0.57487626  0.78583988    -0.06500
N561        N  0.46590974  0.59149095  0.81186914    -0.59000
N562        N  0.00914332  0.57663234  0.70900261    -0.04600
N563        N  0.01832112  0.59660157  0.68351442    -0.60200
N564        N  0.47795901  0.57671182  0.70840493    -0.06500
N565        N  0.46399815  0.59540667  0.68404185    -0.59300
N566        N  0.01089611  0.57361887  0.78799737    -0.04200
N567        N  0.02155792  0.59012871  0.81478447    -0.60300
Mn568      Mn  0.04055577  0.54786100  0.74755301     1.18400
C569        C  0.49346558  0.60220117  0.82814648     0.98000
C570        C  0.98828347  0.60732304  0.66940724     0.98600
N571        N  0.01644531  0.92791202  0.78645192    -0.06500
N572        N  0.02906084  0.90690048  0.80981660    -0.62800
N573        N  0.47753452  0.92965346  0.70783517    -0.05300
N574        N  0.46721519  0.91041515  0.68259447    -0.63500
N575        N  0.01530273  0.92930069  0.70840382    -0.06000
N576        N  0.02752775  0.91038694  0.68349224    -0.63100
N577        N  0.47736836  0.92928094  0.78645133    -0.04900
N578        N  0.46663074  0.90942692  0.81123672    -0.63800
Mn579      Mn  0.04467876  0.95561524  0.74701972     1.10700
C580        C  0.49582862  0.89780403  0.82609967     0.99200
C581        C  0.99970235  0.89838698  0.66841034     0.99300
N582        N  0.42366305  0.52255154  0.70803286    -0.06000
N583        N  0.40573711  0.53626669  0.68301269    -0.61400
N584        N  0.42022728  0.98873613  0.78732942    -0.05400
N585        N  0.40037247  0.97919143  0.81272268    -0.58100
N586        N  0.42355937  0.52167911  0.78549434    -0.06700
N587        N  0.40563546  0.53544719  0.81027899    -0.61000
N588        N  0.42124433  0.98959597  0.70823985    -0.05700
N589        N  0.40309583  0.98020136  0.68197406    -0.58200
Mn590      Mn  0.45053128  0.54946076  0.74693547     1.20200
Mn591      Mn  0.44793481  0.95826001  0.74749183     1.10100
Cl592      Cl  0.99531670  0.50208531  0.74796480    -0.86100
C593        C  0.39394116  0.50921653  0.66676141     0.96200
C594        C  0.39011771  0.00902287  0.82734824     0.96000
N595        N  0.48379382  0.71402090  0.56800107    -0.06300
N596        N  0.47579409  0.68775471  0.58736247    -0.58400
N597        N  0.00523351  0.79559026  0.56774281    -0.06000
N598        N  0.01216285  0.82065783  0.58841945    -0.60500
N599        N  0.47271644  0.79211580  0.56525225    -0.05600
N600        N  0.45617285  0.81452218  0.58447879    -0.58400
N601        N  0.01542376  0.71796663  0.57111154    -0.05200
N602        N  0.03001617  0.69502359  0.59132158    -0.60900
C603        C  0.00425488  0.67587478  0.60167003     0.95900
C604        C  0.48096843  0.83286532  0.59827331     0.95700
N605        N  0.06217121  0.79802140  0.97090442    -0.06500
N606        N  0.07878242  0.82252876  0.95584234    -0.59000
N607        N  0.07552870  0.71998023  0.52092024    -0.04600
N608        N  0.09636788  0.69776525  0.53616671    -0.60200
N609        N  0.07527403  0.72179313  0.97616724    -0.06500
N610        N  0.09629001  0.69882484  0.96320193    -0.59300
N611        N  0.06707335  0.79811403  0.51408301    -0.04200
N612        N  0.08258242  0.82582426  0.52355776    -0.60300
Mn613      Mn  0.04136529  0.75851443  0.54428411     1.18400
C614        C  0.09078611  0.84050129  0.98191051     0.98000
C615        C  0.11182036  0.68491276  0.99040518     0.98600
N616        N  0.42192795  0.78659972  0.50405681    -0.06500
N617        N  0.39838823  0.80943781  0.51315911    -0.62800
N618        N  0.43062693  0.70000925  0.97950775    -0.05300
N619        N  0.41291066  0.67472614  0.96812662    -0.63500
N620        N  0.42976709  0.70793856  0.50550104    -0.06000
N621        N  0.41065274  0.68215193  0.51442470    -0.63100
N622        N  0.41785775  0.77662316  0.97452700    -0.04900
N623        N  0.39700572  0.79902529  0.95989536    -0.63800
Mn624      Mn  0.45112301  0.74966764  0.53661007     1.10700
C625        C  0.38375658  0.81652235  0.98609187     0.99200
C626        C  0.40240680  0.66775113  0.48436450     0.99300
N627        N  0.01927549  0.70868813  0.92478849    -0.06000
N628        N  0.03546941  0.68510437  0.90691399    -0.61400
N629        N  0.47138096  0.78279143  0.91858530    -0.05400
N630        N  0.45445686  0.80539524  0.89963317    -0.58100
N631        N  0.00488583  0.78546053  0.91835352    -0.06700
N632        N  0.01182106  0.81157173  0.89875919    -0.61000
N633        N  0.48702484  0.70585542  0.92312193    -0.05700
N634        N  0.48057446  0.67852850  0.90561153    -0.58200
Mn635      Mn  0.04075873  0.75375719  0.94701839     1.20200
Mn636      Mn  0.45126225  0.74085062  0.94843937     1.10100
Cl637      Cl  0.99767873  0.75043559  0.99465946    -0.86100
C638        C  0.01072681  0.66414319  0.89802985     0.96200
C639        C  0.47892277  0.82566406  0.88790702     0.96000
N640        N  0.28050009  0.92145128  0.98511423    -0.06300
N641        N  0.30509729  0.90033076  0.97451622    -0.58400
N642        N  0.20054009  0.93610156  0.52104644    -0.06000
N643        N  0.17562501  0.92040218  0.53629938    -0.60500
N644        N  0.20171731  0.92961931  0.98445903    -0.05600
N645        N  0.17510871  0.91342113  0.97320367    -0.58400
N646        N  0.27768310  0.92372249  0.51791650    -0.05200
N647        N  0.30172744  0.90354317  0.53096492    -0.60900
C648        C  0.31901689  0.88792625  0.00389780     0.95900
C649        C  0.15981134  0.90267914  0.00211781     0.95700
N650        N  0.20917305  0.52850108  0.57102164    -0.06500
N651        N  0.18568609  0.54507619  0.58894309    -0.59000
N652        N  0.28690718  0.98261442  0.56856372    -0.04600
N653        N  0.30999801  0.96736182  0.58800262    -0.60200
N654        N  0.28672492  0.51466691  0.57311517    -0.06500
N655        N  0.31371757  0.52213906  0.59093730    -0.59300
N656        N  0.20984043  0.99553975  0.57146215    -0.04200
N657        N  0.18432420  0.98863293  0.59177902    -0.60300
Mn658      Mn  0.24364746  0.95903798  0.54532478     1.18400
C659        C  0.16644484  0.52008199  0.60151560     0.98000
C660        C  0.32946325  0.99287283  0.59788227     0.98600
N661        N  0.20673793  0.98973420  0.92920068    -0.06500
N662        N  0.18245657  0.98229142  0.90759032    -0.62800
N663        N  0.29046740  0.51455668  0.92982353    -0.05300
N664        N  0.31636117  0.52312021  0.91027146    -0.63500
N665        N  0.28437464  0.98034817  0.93056098    -0.06000
N666        N  0.30705384  0.96598118  0.91016384    -0.63100
N667        N  0.21211310  0.52425897  0.92581705    -0.04900
N668        N  0.18930872  0.53995989  0.90606251    -0.63800
Mn669      Mn  0.24309110  0.95448928  0.95638002     1.10700
C670        C  0.17268490  0.51438998  0.89140277     0.99200
C671        C  0.32484854  0.99214639  0.89821773     0.99300
N672        N  0.29580542  0.56844917  0.51542300    -0.06000
N673        N  0.31982683  0.58670717  0.52855433    -0.61400
N674        N  0.21210013  0.57682605  0.98781254    -0.05400
N675        N  0.19019565  0.60139693  0.97833424    -0.58100
N676        N  0.21857694  0.58080404  0.51144512    -0.06700
N677        N  0.19442826  0.60278722  0.52089049    -0.61000
N678        N  0.29053084  0.56845514  0.99196349    -0.05700
N679        N  0.31650168  0.58764527  0.98424753    -0.58200
Mn680      Mn  0.25258722  0.54879037  0.54340911     1.20200
Mn681      Mn  0.25156786  0.54705526  0.95785878     1.10100
Cl682      Cl  0.24508589  0.49785593  0.99995043    -0.86100
C683        C  0.32918819  0.59648029  0.01484830     0.96200
C684        C  0.17504066  0.61114996  0.00796706     0.96000
C685        C  0.35861046  0.84444813  0.98119981    -0.16600
C686        C  0.34634070  0.86202135  0.00736509    -0.31800
H687        H  0.34948697  0.85003083  0.95568818     0.12400
H688        H  0.35174773  0.85484712  0.53200972     0.13000
C689        C  0.37496685  0.63300250  0.99392626    -0.16600
C690        C  0.35712324  0.62056397  0.02008192    -0.31800
H691        H  0.36965051  0.62404640  0.96855959     0.12400
H692        H  0.37102267  0.62976125  0.53115086     0.13000
C693        C  0.13034160  0.88091627  0.00443257    -0.16600
C694        C  0.11546684  0.86749302  0.97746781    -0.31800
H695        H  0.12341279  0.87704884  0.54169867     0.12400
H696        H  0.12352739  0.87421610  0.95196375     0.13000
C697        C  0.13767994  0.65745355  0.98653011    -0.16600
C698        C  0.14976652  0.63909470  0.01253986    -0.31800
H699        H  0.14617337  0.65149346  0.96095429     0.12400
H700        H  0.14580717  0.64736769  0.46208745     0.13000
C701        C  0.35144025  0.98741933  0.87183195    -0.16600
C702        C  0.36606464  0.01341799  0.85608783    -0.31800
H703        H  0.35788852  0.96161208  0.86402024     0.12400
H704        H  0.36288204  0.53934328  0.86309135     0.13000
C705        C  0.14525424  0.51984373  0.86575017    -0.16600
C706        C  0.12948420  0.99247659  0.85414908    -0.31800
H707        H  0.13820666  0.54573952  0.85830496     0.12400
H708        H  0.13630643  0.96665438  0.86212049     0.13000
C709        C  0.12193206  0.49899922  0.63833906    -0.16600
C710        C  0.13839475  0.52558489  0.62582238    -0.31800
H711        H  0.12809979  0.47360922  0.62912232     0.12400
H712        H  0.13872466  0.04997598  0.63606906     0.13000
C713        C  0.36996297  0.51282975  0.63862485    -0.16600
C714        C  0.35641644  0.98793116  0.62323092    -0.31800
H715        H  0.36385145  0.53836205  0.62932608     0.12400
H716        H  0.36225919  0.96225885  0.63227774     0.13000
C717        C  0.49064588  0.62430543  0.85752701    -0.16600
C718        C  0.01601896  0.63659917  0.87364970    -0.31800
H719        H  0.46529937  0.62952138  0.86748730     0.12700
H720        H  0.04133179  0.63193133  0.86340165     0.13000
C721        C  0.49870048  0.87255922  0.85349665    -0.16600
C722        C  0.47276794  0.85411040  0.86406452    -0.31800
H723        H  0.52401691  0.86728501  0.86352300     0.12400
H724        H  0.95101493  0.85785479  0.85392514     0.13000
C725        C  0.47464948  0.85936715  0.62437432    -0.16600
C726        C  0.00232408  0.87416124  0.63981031    -0.31800
H727        H  0.95020501  0.86522737  0.63378161     0.12400
H728        H  0.52621665  0.86884816  0.63108787     0.13000
C729        C  0.98357675  0.63193214  0.64108941    -0.16600
C730        C  0.00934605  0.64810953  0.62687140    -0.31800
H731        H  0.46021681  0.63813494  0.63074536     0.12400
H732        H  0.03512349  0.64225333  0.63535910     0.13000
N733        N  0.56915218  0.49015498  0.21079870    -0.06300
N734        N  0.59116102  0.48221166  0.18636695    -0.58400
N735        N  0.56533292  0.01731731  0.29324864    -0.06000
N736        N  0.58469265  0.02669720  0.31882662    -0.60500
N737        N  0.56456975  0.48280532  0.28905528    -0.05600
N738        N  0.58504824  0.46875181  0.31213360    -0.58400
N739        N  0.56897620  0.02415364  0.21578339    -0.05200
N740        N  0.58818376  0.03911705  0.19318360    -0.60900
C741        C  0.60192581  0.01307946  0.17555479     0.95900
C742        C  0.59771236  0.49541754  0.32874950     0.95700
N743        N  0.97258752  0.07294723  0.29246635    -0.06500
N744        N  0.95963947  0.09053357  0.31800910    -0.59000
N745        N  0.51065515  0.08029711  0.21396750    -0.04600
N746        N  0.52196318  0.10082218  0.18978093    -0.60200
N747        N  0.97487844  0.07838629  0.21473354    -0.06500
N748        N  0.96225867  0.09668236  0.18939970    -0.59300
N749        N  0.50546135  0.07342160  0.29235466    -0.04200
N750        N  0.51438958  0.09090370  0.31901744    -0.60300
Mn751      Mn  0.53836305  0.04957227  0.25410272     1.18400
C752        C  0.98733999  0.10043238  0.33499860     0.98000
C753        C  0.49319634  0.11171419  0.17330194     0.98600
N754        N  0.50680497  0.42674754  0.28229385    -0.06500
N755        N  0.51478641  0.40506602  0.30725407    -0.62800
N756        N  0.98144597  0.43162504  0.20266589    -0.05300
N757        N  0.97131049  0.41093077  0.17859606    -0.63500
N758        N  0.51329954  0.43235167  0.20383643    -0.06000
N759        N  0.52718977  0.41267652  0.18024515    -0.63100
N760        N  0.97699786  0.42802217  0.27996378    -0.04900
N761        N  0.96287173  0.40771783  0.30217572    -0.63800
Mn762      Mn  0.53939050  0.45706206  0.24653116     1.10700
C763        C  0.98949328  0.39338710  0.31879611     0.99200
C764        C  0.50043540  0.40063261  0.16317687     0.99300
N765        N  0.92112484  0.02361067  0.20836896    -0.06000
N766        N  0.90351204  0.03756194  0.18313969    -0.61400
N767        N  0.92104007  0.48620655  0.28194465    -0.05400
N768        N  0.90171329  0.47424411  0.30661805    -0.58100
N769        N  0.91778861  0.01859069  0.28594152    -0.06700
N770        N  0.89880416  0.03057047  0.31081509    -0.61000
N771        N  0.92582714  0.49135374  0.20376002    -0.05700
N772        N  0.90867769  0.48189520  0.17703400    -0.58200
Mn773      Mn  0.94596515  0.04899821  0.25045948     1.20200
Mn774      Mn  0.95054790  0.45875416  0.24190780     1.10100
Cl775      Cl  0.49479231  0.00336636  0.24759266    -0.86100
C776        C  0.89367505  0.01053739  0.16524765     0.96200
C777        C  0.89091117  0.50265038  0.32328106     0.96000
N778        N  0.98456133  0.20708311  0.06790133    -0.06300
N779        N  0.97701783  0.18170024  0.08851963    -0.58400
N780        N  0.50663702  0.29380212  0.06465418    -0.06000
N781        N  0.51408337  0.31968475  0.08422786    -0.60500
N782        N  0.97166190  0.28530014  0.06849389    -0.05600
N783        N  0.95613513  0.30850684  0.08776564    -0.58400
N784        N  0.51997163  0.21629101  0.06700965    -0.05200
N785        N  0.53591529  0.19525720  0.08844102    -0.60900
C786        C  0.51081147  0.17713062  0.10232526     0.95900
C787        C  0.98181445  0.32647874  0.10083044     0.95700
N788        N  0.56746993  0.29429149  0.47487317    -0.06500
N789        N  0.58428176  0.31876333  0.46009957    -0.59000
N790        N  0.57573791  0.22185210  0.00820164    -0.04600
N791        N  0.59756246  0.19754220  0.01855292    -0.60200
N792        N  0.57389280  0.21706552  0.47963570    -0.06500
N793        N  0.59428815  0.19321995  0.46730140    -0.59300
N794        N  0.56289332  0.30028677  0.00677186    -0.04200
N795        N  0.58059664  0.32626061  0.01695011    -0.60300
Mn796      Mn  0.54213436  0.25812170  0.03748854     1.18400
C797        C  0.59488408  0.33746774  0.48622053     0.98000
C798        C  0.60949317  0.17969894  0.49487935     0.98600
N799        N  0.91722437  0.27849190  0.00720040    -0.06500
N800        N  0.89383193  0.30191656  0.01560893    -0.62800
N801        N  0.93121506  0.20908297  0.47338200    -0.05300
N802        N  0.91390456  0.18482605  0.45934280    -0.63500
N803        N  0.92962280  0.20025327  0.00850075    -0.06000
N804        N  0.90992991  0.17531031  0.01833354    -0.63100
N805        N  0.92529405  0.28672174  0.47145699    -0.04900
N806        N  0.90437026  0.30968250  0.45744099    -0.63800
Mn807      Mn  0.94977932  0.24280230  0.03904601     1.10700
C808        C  0.88778803  0.32368623  0.48418815     0.99200
C809        C  0.90138479  0.16004796  0.98891516     0.99300
N810        N  0.51827623  0.21012568  0.42528507    -0.06000
N811        N  0.53230075  0.18440112  0.40860531    -0.61400
N812        N  0.98768283  0.28749518  0.41848839    -0.05400
N813        N  0.97778678  0.31177301  0.39682791    -0.58100
N814        N  0.51323645  0.28742271  0.42068742    -0.06700
N815        N  0.52593197  0.31142931  0.40177774    -0.61000
N816        N  0.99155555  0.20922574  0.42408758    -0.05700
N817        N  0.98205181  0.18283144  0.40674774    -0.58200
Mn818      Mn  0.54352014  0.25202714  0.44977646     1.20200
Mn819      Mn  0.95831736  0.24864860  0.44607010     1.10100
Cl820      Cl  0.49818837  0.25220028  0.49495185    -0.86100
C821        C  0.50536822  0.16714268  0.39789716     0.96200
C822        C  0.00742277  0.32566446  0.38695183     0.96000
N823        N  0.77697833  0.42139744  0.48519132    -0.06300
N824        N  0.80117377  0.39959707  0.47519610    -0.58400
N825        N  0.70310611  0.43004470  0.02064201    -0.06000
N826        N  0.67821523  0.41326593  0.03471407    -0.60500
N827        N  0.69883322  0.43397695  0.48416838    -0.05600
N828        N  0.67296384  0.41590287  0.47421690    -0.58400
N829        N  0.78026920  0.42264093  0.01640552    -0.05200
N830        N  0.80337073  0.40132103  0.02893005    -0.60900
C831        C  0.81496417  0.38772296  0.50468058     0.95900
C832        C  0.65707877  0.40773943  0.50369432     0.95700
N833        N  0.70702846  0.01402319  0.07593273    -0.06500
N834        N  0.68236056  0.02477898  0.09650261    -0.59000
N835        N  0.78851948  0.47752086  0.07079422    -0.04600
N836        N  0.81439636  0.46312750  0.08729515    -0.60200
N837        N  0.78546814  0.00906994  0.07444807    -0.06500
N838        N  0.81198120  0.01830789  0.09189338    -0.59300
N839        N  0.71133682  0.48328197  0.07601296    -0.04200
N840        N  0.68755407  0.47059918  0.09515252    -0.60300
Mn841      Mn  0.74593405  0.45305939  0.04633415     1.18400
C842        C  0.66727122  0.99559488  0.10611389     0.98000
C843        C  0.83215318  0.48986502  0.09768582     0.98600
N844        N  0.70773121  0.48890461  0.42447300    -0.06500
N845        N  0.68133536  0.48151919  0.40546605    -0.62800
N846        N  0.78511865  0.01106679  0.42884927    -0.05300
N847        N  0.80972192  0.01764504  0.40706524    -0.63500
N848        N  0.78523195  0.47489223  0.42597655    -0.06000
N849        N  0.80693550  0.45846011  0.40585509    -0.63100
N850        N  0.70732959  0.02450044  0.43251179    -0.04900
N851        N  0.68457117  0.03985123  0.41237390    -0.63800
Mn852      Mn  0.74193596  0.45397305  0.45412594     1.10700
C853        C  0.66568302  0.01431374  0.40062149     0.99200
C854        C  0.82617604  0.48326671  0.39291276     0.99300
N855        N  0.78851888  0.06774266  0.02166374    -0.06000
N856        N  0.81323089  0.08492108  0.03518968    -0.61400
N857        N  0.71762043  0.08027813  0.49062506    -0.05400
N858        N  0.69304392  0.10247262  0.48205626    -0.58100
N859        N  0.71089633  0.07358998  0.02151199    -0.06700
N860        N  0.68798299  0.09448627  0.03503734    -0.61000
N861        N  0.79604900  0.06889589  0.48621738    -0.05700
N862        N  0.82079128  0.08838009  0.47520381    -0.58200
Mn863      Mn  0.74773341  0.04180346  0.04908359     1.20200
Mn864      Mn  0.75170899  0.04714333  0.45850022     1.10100
Cl865      Cl  0.74792720  0.00119145  0.50453874    -0.86100
C866        C  0.83708528  0.09734266  0.50411393     0.96200
C867        C  0.68155661  0.11451712  0.51239811     0.96000
C868        C  0.86018100  0.34984798  0.48067063    -0.16600
C869        C  0.84332602  0.36237468  0.50766604    -0.31800
H870        H  0.85329000  0.35855863  0.45528247     0.12400
H871        H  0.85138490  0.35292913  0.03099352     0.13000
C872        C  0.87658573  0.14016551  0.48128891    -0.16600
C873        C  0.86411353  0.12247886  0.50737373    -0.31800
H874        H  0.86827732  0.13478778  0.45568513     0.12400
H875        H  0.86526517  0.12831871  0.03734112     0.13000
C876        C  0.62944098  0.38364007  0.50747921    -0.16600
C877        C  0.61770199  0.36607699  0.48139410    -0.31800
H878        H  0.62455702  0.37175677  0.03692854     0.12400
H879        H  0.62667974  0.37132919  0.45585388     0.13000
C880        C  0.63599139  0.15279507  0.49149923    -0.16600
C881        C  0.65407965  0.14025608  0.51746916    -0.31800
H882        H  0.64136835  0.14365030  0.46605527     0.12400
H883        H  0.63905866  0.14420116  0.03748457     0.13000
C884        C  0.85205551  0.47785655  0.36611221    -0.16600
C885        C  0.86769753  0.50446629  0.35253479    -0.31800
H886        H  0.85697329  0.45242904  0.35642885     0.12400
H887        H  0.85683079  0.03151226  0.36313152     0.13000
C888        C  0.63815771  0.01926336  0.37476029    -0.16600
C889        C  0.62440418  0.49129570  0.35537899    -0.31800
H890        H  0.63174668  0.04503249  0.36642078     0.12400
H891        H  0.63095777  0.46554755  0.36372237     0.13000
C892        C  0.62674560  0.01820516  0.14830306    -0.16600
C893        C  0.63983000  0.99211338  0.13092315    -0.31800
H894        H  0.63513484  0.04376283  0.14325984     0.12400
H895        H  0.63807921  0.46763225  0.13995156     0.13000
C896        C  0.86987207  0.01319568  0.13695890    -0.16600
C897        C  0.86115309  0.48678545  0.12070547    -0.31800
H898        H  0.86102009  0.03843295  0.12896221     0.12400
H899        H  0.86947130  0.46149411  0.12907066     0.13000
C900        C  0.98577529  0.12424214  0.36327361    -0.16600
C901        C  0.50836913  0.13822583  0.37499444    -0.31800
H902        H  0.96080582  0.13353926  0.37137568     0.12700
H903        H  0.53371200  0.12952441  0.36750612     0.13000
C904        C  0.98510516  0.36743968  0.34535872    -0.16600
C905        C  0.01139722  0.35307455  0.36185269    -0.31800
H906        H  0.95951852  0.35957111  0.35095623     0.12400
H907        H  0.52877086  0.36257518  0.35852944     0.13000
C908        C  0.97708783  0.35496586  0.12541217    -0.16600
C909        C  0.50442947  0.37509732  0.13559851    -0.31800
H910        H  0.45262248  0.36501926  0.12975417     0.12400
H911        H  0.02918087  0.36362676  0.13079935     0.13000
C912        C  0.49037510  0.13583173  0.14431368    -0.16600
C913        C  0.51645281  0.15161593  0.12993518    -0.31800
H914        H  0.96090142  0.13812296  0.13569431     0.12400
H915        H  0.54212213  0.14653871  0.13910774     0.13000
N916        N  0.56897242  0.48608925  0.70723828    -0.06300
N917        N  0.58742158  0.47329515  0.68229918    -0.58400
N918        N  0.56954680  0.01583273  0.78668774    -0.06000
N919        N  0.59047573  0.02526880  0.81095141    -0.60500
N920        N  0.56907081  0.48434472  0.78512383    -0.05600
N921        N  0.58710802  0.47031742  0.80996696    -0.58400
N922        N  0.56836858  0.01685914  0.70824901    -0.05200
N923        N  0.58876398  0.02705206  0.68379133    -0.60900
C924        C  0.59942774  0.99761656  0.66904273     0.95900
C925        C  0.59947200  0.49696052  0.82651374     0.95700
N926        N  0.98293861  0.07464121  0.78776683    -0.06500
N927        N  0.97078175  0.09324146  0.81282099    -0.59000
N928        N  0.51142660  0.07630383  0.70825326    -0.04600
N929        N  0.52157744  0.09628730  0.68316402    -0.60200
N930        N  0.98042325  0.07565089  0.71021678    -0.06500
N931        N  0.96606135  0.09459658  0.68622165    -0.59300
N932        N  0.51189399  0.07417585  0.78692097    -0.04200
N933        N  0.52277006  0.09159124  0.81299022    -0.60300
Mn934      Mn  0.54129110  0.04685836  0.74747174     1.18400
C935        C  0.99875977  0.10515459  0.82751244     0.98000
C936        C  0.49203906  0.10804102  0.66878193     0.98600
N937        N  0.51353953  0.43015119  0.78448093    -0.06500
N938        N  0.52646100  0.41081154  0.80893942    -0.62800
N939        N  0.97947867  0.42903211  0.70833824    -0.05300
N940        N  0.96898271  0.40971968  0.68324834    -0.63500
N941        N  0.51410318  0.43144151  0.70683657    -0.06000
N942        N  0.52783524  0.41329453  0.68220465    -0.63100
N943        N  0.98112548  0.42882773  0.78717305    -0.04900
N944        N  0.97148670  0.41005057  0.81323448    -0.63800
Mn945      Mn  0.54190280  0.45751889  0.74594062     1.10700
C946        C  0.00126527  0.39964677  0.82778681     0.99200
C947        C  0.50107167  0.40097791  0.66582966     0.99300
N948        N  0.92605468  0.02123278  0.71127717    -0.06000
N949        N  0.90868464  0.03440623  0.68556791    -0.61400
N950        N  0.92147667  0.48606030  0.78872683    -0.05400
N951        N  0.90085723  0.47609499  0.81333106    -0.58100
N952        N  0.92685252  0.02082519  0.78920405    -0.06700
N953        N  0.90794607  0.03442106  0.81346663    -0.61000
N954        N  0.92126173  0.48699029  0.70997308    -0.05700
N955        N  0.90210521  0.47703169  0.68465171    -0.58200
Mn956      Mn  0.95360985  0.04853906  0.74973648     1.20200
Mn957      Mn  0.94982307  0.45656266  0.74864368     1.10100
Cl958      Cl  0.49467723  0.00249621  0.74760211    -0.86100
C959        C  0.89753666  0.00692950  0.66942604     0.96200
C960        C  0.88957763  0.50575229  0.82764527     0.96000
N961        N  0.98378242  0.21371548  0.56892936    -0.06300
N962        N  0.97602085  0.18749022  0.58854338    -0.58400
N963        N  0.50985323  0.29638764  0.56620714    -0.06000
N964        N  0.51727679  0.32220313  0.58592837    -0.60500
N965        N  0.97278394  0.29201315  0.56561423    -0.05600
N966        N  0.95650432  0.31453733  0.58493749    -0.58400
N967        N  0.51982841  0.21839165  0.56987227    -0.05200
N968        N  0.53497616  0.19539760  0.58972207    -0.60900
C969        C  0.50917247  0.17751237  0.60234704     0.95900
C970        C  0.98149886  0.33295514  0.59830304     0.95700
N971        N  0.56166503  0.29983290  0.97342019    -0.06500
N972        N  0.57829239  0.32533192  0.96025781    -0.59000
N973        N  0.57610730  0.21866370  0.51282851    -0.04600
N974        N  0.59859706  0.19525874  0.52387476    -0.60200
N975        N  0.57508104  0.22291947  0.97483582    -0.06500
N976        N  0.59603207  0.19981006  0.96180786    -0.59300
N977        N  0.56764700  0.29751484  0.50804151    -0.04200
N978        N  0.58493451  0.32439461  0.51655088    -0.60300
Mn979      Mn  0.54426515  0.25812541  0.54027089     1.18400
C980        C  0.58975604  0.34176910  0.98759151     0.98000
C981        C  0.60992195  0.18413340  0.98910624     0.98600
N982        N  0.92157655  0.28628097  0.50470560    -0.06500
N983        N  0.89822203  0.30926996  0.51392084    -0.62800
N984        N  0.93267278  0.20034450  0.97519646    -0.05300
N985        N  0.91523987  0.17572414  0.96186293    -0.63500
N986        N  0.92891325  0.20770543  0.50670650    -0.06000
N987        N  0.90942182  0.18230105  0.51586389    -0.63100
N988        N  0.91953011  0.27693868  0.97393586    -0.04900
N989        N  0.89828982  0.29882472  0.95908357    -0.63800
Mn990      Mn  0.95084254  0.24939015  0.53741943     1.10700
C991        C  0.88241956  0.31428647  0.98511690     0.99200
C992        C  0.90054501  0.16811296  0.48589243     0.99300
N993        N  0.52052470  0.21327020  0.92071511    -0.06000
N994        N  0.53702893  0.18987373  0.90281994    -0.61400
N995        N  0.97645400  0.28718556  0.92235728    -0.05400
N996        N  0.96016114  0.31028727  0.90355997    -0.58100
N997        N  0.50556452  0.29030739  0.91827146    -0.06700
N998        N  0.51216256  0.31687372  0.89909898    -0.61000
N999        N  0.99197333  0.21022396  0.92190954    -0.05700
N1000       N  0.98601003  0.18389435  0.90278721    -0.58200
Mn1001     Mn  0.54122821  0.25695442  0.94623024     1.20200
Mn1002     Mn  0.95487512  0.24320015  0.94781979     1.10100
Cl1003     Cl  0.49657983  0.25067634  0.99249908    -0.86100
C1004       C  0.51228188  0.16930683  0.89292772     0.96200
C1005       C  0.98476447  0.33126962  0.89378632     0.96000
N1006       N  0.77878628  0.42098747  0.98317672    -0.06300
N1007       N  0.80154009  0.39786924  0.97231972    -0.58400
N1008       N  0.69884420  0.43614890  0.51745576    -0.06000
N1009       N  0.67316903  0.42007545  0.53078012    -0.60500
N1010       N  0.70016517  0.43052708  0.98740756    -0.05600
N1011       N  0.67314906  0.41388898  0.97814458    -0.58400
N1012       N  0.77612224  0.42281350  0.51853049    -0.05200
N1013       N  0.79952518  0.40201492  0.53189882    -0.60900
C1014       C  0.81658418  0.38605838  0.00149444     0.95900
C1015       C  0.65962923  0.40349234  0.00802333     0.95700
N1016       N  0.71545400  0.02385685  0.57917149    -0.06500
N1017       N  0.69208711  0.04006402  0.59745535    -0.59000
N1018       N  0.78248742  0.47970716  0.57236726    -0.04600
N1019       N  0.80502312  0.46390597  0.59213791    -0.60200
N1020       N  0.79261146  0.01026777  0.57491274    -0.06500
N1021       N  0.81976891  0.01762622  0.59237214    -0.59300
N1022       N  0.70533993  0.49377846  0.57068721    -0.04200
N1023       N  0.67904006  0.48721658  0.59012762    -0.60300
Mn1024     Mn  0.74054914  0.45753335  0.54534706     1.18400
C1025       C  0.67247183  0.01493429  0.60888615     0.98000
C1026       C  0.82413356  0.48921438  0.60338430     0.98600
N1027       N  0.70136524  0.48860547  0.92972506    -0.06500
N1028       N  0.67616100  0.48111945  0.90915206    -0.62800
N1029       N  0.78703743  0.01311564  0.92847482    -0.05300
N1030       N  0.81276501  0.02155974  0.90863623    -0.63500
N1031       N  0.77914336  0.47862758  0.92645896    -0.06000
N1032       N  0.80194462  0.46361211  0.90662662    -0.63100
N1033       N  0.70868203  0.02211930  0.92829912    -0.04900
N1034       N  0.68619106  0.03743273  0.90797763    -0.63800
Mn1035     Mn  0.73959219  0.45387367  0.95573728     1.10700
C1036       C  0.66913799  0.01169354  0.89429358     0.99200
C1037       C  0.81967746  0.48947858  0.89387153     0.99300
N1038       N  0.79713595  0.06677862  0.51957484    -0.06000
N1039       N  0.82228866  0.08410546  0.53177147    -0.61400
N1040       N  0.71123083  0.07649874  0.98817356    -0.05400
N1041       N  0.68808989  0.09979348  0.97844231    -0.58100
N1042       N  0.72062909  0.07911372  0.52387017    -0.06700
N1043       N  0.69862942  0.10013554  0.53856121    -0.61000
N1044       N  0.79006121  0.06915540  0.98828661    -0.05700
N1045       N  0.81595022  0.08765188  0.97855495    -0.58200
Mn1046     Mn  0.75671934  0.04541422  0.54983644     1.20200
Mn1047     Mn  0.74947925  0.04616506  0.95736869     1.10100
Cl1048     Cl  0.74586469  0.99855712  0.00148154    -0.86100
C1049       C  0.83029886  0.09710889  0.00820134     0.96200
C1050       C  0.67381564  0.11060441  0.00808993     0.96000
C1051       C  0.85620444  0.34138197  0.97960318    -0.16600
C1052       C  0.84287833  0.35888329  0.00534008    -0.31800
H1053       H  0.84814477  0.34727108  0.95380271     0.12400
H1054       H  0.85047760  0.35380084  0.53302929     0.13000
C1055       C  0.87584027  0.13336192  0.98532293    -0.16600
C1056       C  0.85890064  0.12048040  0.01184434    -0.31800
H1057       H  0.86954160  0.12550345  0.95981614     0.12400
H1058       H  0.87270948  0.12790118  0.53287645     0.13000
C1059       C  0.63070298  0.38089165  0.01162393    -0.16600
C1060       C  0.61405581  0.36934423  0.98470770    -0.31800
H1061       H  0.62058035  0.37817593  0.53302006     0.12400
H1062       H  0.62048695  0.37823976  0.95938622     0.13000
C1063       C  0.63528894  0.15594626  0.98559638    -0.16600
C1064       C  0.64772285  0.13811151  0.01200135    -0.31800
H1065       H  0.64388589  0.14967865  0.96013151     0.12400
H1066       H  0.64885785  0.14912465  0.54303042     0.13000
C1067       C  0.84732628  0.48414392  0.86873162    -0.16600
C1068       C  0.86400234  0.50993276  0.85499143    -0.31800
H1069       H  0.85328293  0.45834340  0.86059144     0.12400
H1070       H  0.86350095  0.03768725  0.86551109     0.13000
C1071       C  0.64235083  0.01703339  0.86799326    -0.16600
C1072       C  0.62288795  0.49219175  0.85567192    -0.31800
H1073       H  0.63578529  0.04294618  0.86017240     0.12400
H1074       H  0.62936278  0.46620308  0.86336554     0.13000
C1075       C  0.62530756  0.99432149  0.64246696    -0.16600
C1076       C  0.64343370  0.02047622  0.63179580    -0.31800
H1077       H  0.63118080  0.96890920  0.63317136     0.12400
H1078       H  0.63487786  0.54970523  0.63426866     0.13000
C1079       C  0.87464218  0.00954966  0.64040028    -0.16600
C1080       C  0.85132175  0.48393491  0.62857071    -0.31800
H1081       H  0.86799982  0.03490706  0.63093720     0.12400
H1082       H  0.85686884  0.45832967  0.63796516     0.13000
C1083       C  0.99656616  0.12925411  0.85552790    -0.16600
C1084       C  0.51770550  0.14135386  0.86911127    -0.31800
H1085       H  0.97133442  0.13450719  0.86580187     0.12700
H1086       H  0.54297623  0.13644196  0.85887038     0.13000
C1087       C  0.00510002  0.37598565  0.85652557    -0.16600
C1088       C  0.97902963  0.35923142  0.86936506    -0.31800
H1089       H  0.03071528  0.37028663  0.86554041     0.12400
H1090       H  0.45028144  0.36057392  0.85314206     0.13000
C1091       C  0.97562264  0.35952358  0.62444413    -0.16600
C1092       C  0.50580676  0.37706174  0.63732775    -0.31800
H1093       H  0.45434532  0.36729071  0.62994316     0.12400
H1094       H  0.02729837  0.36923161  0.63023309     0.13000
C1095       C  0.48831167  0.13321532  0.64089845    -0.16600
C1096       C  0.51434920  0.14975352  0.62756480    -0.31800
H1097       H  0.96122415  0.13746611  0.63284895     0.12400
H1098       H  0.54003539  0.14378233  0.63625680     0.13000
N1099       N  0.57068680  0.99087641  0.21256888    -0.06300
N1100       N  0.59141325  0.98258925  0.18730897    -0.58400
N1101       N  0.56454237  0.51620625  0.29116559    -0.06000
N1102       N  0.58525583  0.52534829  0.31571775    -0.60500
N1103       N  0.56613920  0.98392365  0.29085246    -0.05600
N1104       N  0.58580852  0.97011250  0.31477334    -0.58400
N1105       N  0.56705142  0.52343167  0.21392092    -0.05200
N1106       N  0.58697228  0.53866291  0.19218409    -0.60900
C1107       C  0.60182802  0.51294554  0.17505418     0.95900
C1108       C  0.59718559  0.99691386  0.33218961     0.95700
N1109       N  0.97665240  0.57393347  0.29033819    -0.06500
N1110       N  0.96343308  0.59199608  0.31540441    -0.59000
N1111       N  0.50936192  0.57992569  0.21300858    -0.04600
N1112       N  0.52092155  0.60025521  0.18883578    -0.60200
N1113       N  0.97986918  0.57991678  0.21260305    -0.06500
N1114       N  0.96794399  0.60033423  0.18847394    -0.59300
N1115       N  0.50606413  0.57343548  0.29120976    -0.04200
N1116       N  0.51657706  0.59143654  0.31689439    -0.60300
Mn1117     Mn  0.53729890  0.54883798  0.25253232     1.18400
C1118       C  0.99090399  0.60195861  0.33269570     0.98000
C1119       C  0.49227997  0.61185052  0.17268685     0.98600
N1120       N  0.51002177  0.92749067  0.28332532    -0.06500
N1121       N  0.51911650  0.90701071  0.30877200    -0.62800
N1122       N  0.97931802  0.93241423  0.20369345    -0.05300
N1123       N  0.97045910  0.91372936  0.17747660    -0.63500
N1124       N  0.51648276  0.93212012  0.20496256    -0.06000
N1125       N  0.53050283  0.91254167  0.18129855    -0.63100
N1126       N  0.97432589  0.92776514  0.28147514    -0.04900
N1127       N  0.96072562  0.90785677  0.30437235    -0.63800
Mn1128     Mn  0.54182027  0.95769574  0.24789055     1.10700
C1129       C  0.98775926  0.89421227  0.32086420     0.99200
C1130       C  0.50376418  0.90034130  0.16419647     0.99300
N1131       N  0.92552043  0.52465948  0.20588149    -0.06000
N1132       N  0.90812095  0.53865409  0.18051774    -0.61400
N1133       N  0.91685488  0.98528735  0.28446002    -0.05400
N1134       N  0.89668136  0.97392108  0.30887816    -0.58100
N1135       N  0.92172332  0.51950081  0.28360207    -0.06700
N1136       N  0.90321141  0.53093354  0.30910741    -0.61000
N1137       N  0.92184192  0.99034167  0.20601760    -0.05700
N1138       N  0.90474549  0.98081011  0.17930277    -0.58200
Mn1139     Mn  0.95024432  0.55007655  0.24807921     1.20200
Mn1140     Mn  0.94717313  0.95805350  0.24377591     1.10100
Cl1141     Cl  0.49286086  0.50353645  0.24669144    -0.86100
C1142       C  0.89800695  0.51165457  0.16274232     0.96200
C1143       C  0.88576949  0.00276028  0.32504164     0.96000
N1144       N  0.99015445  0.71616688  0.07198527    -0.06300
N1145       N  0.98327154  0.69188515  0.09410126    -0.58400
N1146       N  0.50750292  0.79448429  0.06458983    -0.06000
N1147       N  0.51551876  0.82013270  0.08419677    -0.60500
N1148       N  0.97678979  0.79348149  0.06456000    -0.05600
N1149       N  0.96111550  0.81667665  0.08342311    -0.58400
N1150       N  0.52053384  0.71701286  0.06766196    -0.05200
N1151       N  0.53648905  0.69558704  0.08874504    -0.60900
C1152       C  0.51128065  0.67747218  0.10255946     0.95900
C1153       C  0.98633461  0.83587782  0.09481399     0.95700
N1154       N  0.57098257  0.79485675  0.48030575    -0.06500
N1155       N  0.58803083  0.81979526  0.46679081    -0.59000
N1156       N  0.57591701  0.72229579  0.00844345    -0.04600
N1157       N  0.59830413  0.69866418  0.01908770    -0.60200
N1158       N  0.57820507  0.71728532  0.48693503    -0.06500
N1159       N  0.60066507  0.69305685  0.47899024    -0.59300
N1160       N  0.56274176  0.80050740  0.00547865    -0.04200
N1161       N  0.58097691  0.82653725  0.01453193    -0.60300
Mn1162     Mn  0.54250063  0.75867398  0.03739952     1.18400
C1163       C  0.59534173  0.83928395  0.49347979     0.98000
C1164       C  0.61204570  0.68145784  0.50948491     0.98600
N1165       N  0.91978595  0.78163106  0.00899332    -0.06500
N1166       N  0.89890528  0.80740500  0.01688060    -0.62800
N1167       N  0.93213805  0.70881963  0.47264832    -0.05300
N1168       N  0.91597396  0.68392621  0.45833602    -0.63500
N1169       N  0.93165440  0.70401423  0.01890176    -0.06000
N1170       N  0.91367960  0.68098909  0.03476638    -0.63100
N1171       N  0.92541607  0.78663789  0.47090262    -0.04900
N1172       N  0.90464402  0.80955800  0.45656634    -0.63800
Mn1173     Mn  0.95394681  0.74890732  0.04182540     1.10700
C1174       C  0.88780194  0.82370325  0.48306838     0.99200
C1175       C  0.90120937  0.66213375  0.00954651     0.99300
N1176       N  0.52594005  0.71084310  0.42564471    -0.06000
N1177       N  0.53977151  0.68511680  0.40856746    -0.61400
N1178       N  0.98825724  0.78815060  0.41927797    -0.05400
N1179       N  0.97815118  0.81253341  0.39791032    -0.58100
N1180       N  0.52178462  0.78873390  0.42169959    -0.06700
N1181       N  0.53495309  0.81323786  0.40358384    -0.61000
N1182       N  0.99280772  0.70997125  0.42354430    -0.05700
N1183       N  0.98381983  0.68393314  0.40535625    -0.58200
Mn1184     Mn  0.54999016  0.75234309  0.45307396     1.20200
Mn1185     Mn  0.95902110  0.74883500  0.44585694     1.10100
Cl1186     Cl  0.50053908  0.75277611  0.49476869    -0.86100
C1187       C  0.51258573  0.66956305  0.39551275     0.96200
C1188       C  0.00760524  0.82693250  0.38842509     0.96000
N1189       N  0.77662740  0.92233186  0.48768281    -0.06300
N1190       N  0.80032871  0.90074222  0.47599617    -0.58400
N1191       N  0.70334421  0.92874721  0.01740783    -0.06000
N1192       N  0.67793298  0.91219197  0.03053556    -0.60500
N1193       N  0.69837385  0.93492790  0.49197251    -0.05600
N1194       N  0.67165017  0.91776978  0.48287609    -0.58400
N1195       N  0.78067572  0.92254553  0.01692624    -0.05200
N1196       N  0.80480963  0.90267431  0.02990049    -0.60900
C1197       C  0.81554646  0.88812529  0.50458934     0.95900
C1198       C  0.65758098  0.90837199  0.51286419     0.95700
N1199       N  0.71167132  0.51655902  0.07796048    -0.06500
N1200       N  0.68733068  0.52723368  0.09916606    -0.59000
N1201       N  0.78440124  0.97584551  0.07317308    -0.04600
N1202       N  0.81016160  0.96155620  0.08991707    -0.60200
N1203       N  0.79028599  0.51076327  0.07131736    -0.06500
N1204       N  0.81734138  0.51981895  0.08804273    -0.59300
N1205       N  0.70685061  0.98079309  0.07379766    -0.04200
N1206       N  0.68243103  0.96812220  0.09218950    -0.60300
Mn1207     Mn  0.74392461  0.95152250  0.04567668     1.18400
C1208       C  0.67262174  0.49789199  0.10942491     0.98000
C1209       C  0.82712899  0.98842668  0.10123869     0.98600
N1210       N  0.70279062  0.99144086  0.43308898    -0.06500
N1211       N  0.67702325  0.98386708  0.41328412    -0.62800
N1212       N  0.79075588  0.50771453  0.42535938    -0.05300
N1213       N  0.81616503  0.51419703  0.40471506    -0.63500
N1214       N  0.77996345  0.97813652  0.42960076    -0.06000
N1215       N  0.80080792  0.96184959  0.40859500    -0.63100
N1216       N  0.71314550  0.52174857  0.42293671    -0.04900
N1217       N  0.69033517  0.53723964  0.40300016    -0.63800
Mn1218     Mn  0.73915771  0.95594721  0.45982807     1.10700
C1219       C  0.67060137  0.51194161  0.39226755     0.99200
C1220       C  0.81934431  0.98663603  0.39478396     0.99300
N1221       N  0.79122134  0.56901766  0.01603335    -0.06000
N1222       N  0.81764939  0.58692074  0.02515292    -0.61400
N1223       N  0.72042310  0.57905292  0.47728171    -0.05400
N1224       N  0.69769584  0.60033978  0.46363568    -0.58100
N1225       N  0.71328760  0.57571800  0.02195093    -0.06700
N1226       N  0.69172547  0.59766722  0.03607699    -0.61000
N1227       N  0.79812597  0.56750844  0.48091795    -0.05700
N1228       N  0.82372488  0.58653453  0.47115454    -0.58200
Mn1229     Mn  0.75155747  0.54389356  0.04779759     1.20200
Mn1230     Mn  0.75611148  0.54463859  0.45074099     1.10100
Cl1231     Cl  0.74799602  0.50088242  0.49793751    -0.86100
C1232       C  0.83726307  0.59722375  0.50087970     0.96200
C1233       C  0.68208541  0.61465586  0.49069646     0.96000
C1234       C  0.86021504  0.84993711  0.47928179    -0.16600
C1235       C  0.84381144  0.86259812  0.50642181    -0.31800
H1236       H  0.85309583  0.85857812  0.45393748     0.12400
H1237       H  0.85769418  0.85903359  0.03191310     0.13000
C1238       C  0.87914527  0.63851619  0.47949042    -0.16600
C1239       C  0.86399477  0.62254657  0.50523231    -0.31800
H1240       H  0.87324447  0.63161311  0.45359369     0.12400
H1241       H  0.86761608  0.62551123  0.96428802     0.13000
C1242       C  0.62988764  0.88445755  0.51678348    -0.16600
C1243       C  0.61727209  0.86858737  0.49004910    -0.31800
H1244       H  0.62419722  0.87253881  0.03230225     0.12400
H1245       H  0.62566768  0.87522950  0.46463005     0.13000
C1246       C  0.63881552  0.65480140  0.51409130    -0.16600
C1247       C  0.65445413  0.64047599  0.48732715    -0.31800
H1248       H  0.64618088  0.64739522  0.53973429     0.12400
H1249       H  0.64301344  0.64818916  0.03900872     0.13000
C1250       C  0.84505534  0.98031421  0.36781248    -0.16600
C1251       C  0.86177265  0.00592894  0.35380447    -0.31800
H1252       H  0.84943619  0.95457680  0.35873936     0.12400
H1253       H  0.86220269  0.52973417  0.36241408     0.13000
C1254       C  0.64192354  0.51721860  0.36788389    -0.16600
C1255       C  0.62244623  0.99308172  0.36032825    -0.31800
H1256       H  0.63595749  0.54295625  0.35914692     0.12400
H1257       H  0.62945466  0.96734299  0.36834223     0.13000
C1258       C  0.62816815  0.51903997  0.14919866    -0.16600
C1259       C  0.64478987  0.49355066  0.13393872    -0.31800
H1260       H  0.63460680  0.54507093  0.14341348     0.12400
H1261       H  0.63131004  0.96662769  0.13616064     0.13000
C1262       C  0.87455458  0.51443987  0.13410777    -0.16600
C1263       C  0.85635050  0.98545457  0.12391006    -0.31800
H1264       H  0.86590806  0.53972258  0.12603898     0.12400
H1265       H  0.86491621  0.96019842  0.13213912     0.13000
C1266       C  0.98882528  0.62606835  0.36074907    -0.16600
C1267       C  0.51456245  0.64079906  0.37202696    -0.31800
H1268       H  0.96367507  0.63531739  0.36834683     0.12700
H1269       H  0.53948952  0.63130078  0.36402648     0.13000
C1270       C  0.98419579  0.86875512  0.34787761    -0.16600
C1271       C  0.01104786  0.85439743  0.36343634    -0.31800
H1272       H  0.95878465  0.86096310  0.35434130     0.12400
H1273       H  0.53673514  0.86536639  0.35931979     0.13000
C1274       C  0.98033345  0.86331490  0.11998719    -0.16600
C1275       C  0.50745076  0.87490980  0.13647232    -0.31800
H1276       H  0.45538044  0.86568990  0.13095364     0.12400
H1277       H  0.03169793  0.87345114  0.12720519     0.13000
C1278       C  0.49002061  0.63621765  0.14394790    -0.16600
C1279       C  0.51654058  0.65151531  0.12976329    -0.31800
H1280       H  0.96793190  0.64520733  0.13759994     0.12400
H1281       H  0.54212710  0.64578215  0.13885006     0.13000
N1282       N  0.56707424  0.98352587  0.70850944    -0.06300
N1283       N  0.58620921  0.97030597  0.68429024    -0.58400
N1284       N  0.57011220  0.51767807  0.78594120    -0.06000
N1285       N  0.58917284  0.52697546  0.81177692    -0.60500
N1286       N  0.56812270  0.98249681  0.78632448    -0.05600
N1287       N  0.58782337  0.96864601  0.81008352    -0.58400
N1288       N  0.56960292  0.51945695  0.70695320    -0.05200
N1289       N  0.58882531  0.53011009  0.68167231    -0.60900
C1290       C  0.59954541  0.50085921  0.66653861     0.95900
C1291       C  0.60155287  0.99542342  0.82541899     0.95700
N1292       N  0.97754731  0.57294061  0.78807622    -0.06500
N1293       N  0.96477910  0.58864386  0.81473142    -0.59000
N1294       N  0.51127654  0.57755017  0.70735063    -0.04600
N1295       N  0.52066675  0.59736063  0.68184068    -0.60200
N1296       N  0.97584250  0.57555865  0.71025414    -0.06500
N1297       N  0.96171873  0.59439111  0.68599763    -0.59300
N1298       N  0.51214041  0.57527232  0.78604165    -0.04200
N1299       N  0.52273398  0.59248700  0.81236160    -0.60300
Mn1300     Mn  0.54191591  0.54867283  0.74648774     1.18400
C1301       C  0.99235969  0.59913795  0.83113296     0.98000
C1302       C  0.49067731  0.60807541  0.66759017     0.98600
N1303       N  0.51076902  0.92933536  0.78618020    -0.06500
N1304       N  0.52346495  0.90993355  0.81067977    -0.62800
N1305       N  0.98189154  0.92905659  0.70893421    -0.05300
N1306       N  0.97079776  0.90973735  0.68411783    -0.63500
N1307       N  0.51093618  0.92969444  0.70841058    -0.06000
N1308       N  0.52394090  0.91088110  0.68385051    -0.63100
N1309       N  0.98302795  0.92827886  0.78729652    -0.04900
N1310       N  0.97223751  0.90737907  0.81112839    -0.63800
Mn1311     Mn  0.53964084  0.95573282  0.74740762     1.10700
C1312       C  0.00129710  0.89442711  0.82503962     0.99200
C1313       C  0.49664987  0.89902734  0.66783672     0.99300
N1314       N  0.92171331  0.52035859  0.71055943    -0.06000
N1315       N  0.90317343  0.53385211  0.68585030    -0.61400
N1316       N  0.92550256  0.98748390  0.78973961    -0.05400
N1317       N  0.90518617  0.97779952  0.81473379    -0.58100
N1318       N  0.92226244  0.51941349  0.78811754    -0.06700
N1319       N  0.90272193  0.53279741  0.81195144    -0.61000
N1320       N  0.92559032  0.98789434  0.71093776    -0.05700
N1321       N  0.90773871  0.97755573  0.68494918    -0.58200
Mn1322     Mn  0.94896231  0.54760173  0.74921936     1.20200
Mn1323     Mn  0.95304286  0.95731142  0.74937176     1.10100
Cl1324     Cl  0.49619497  0.50343814  0.74632372    -0.86100
C1325       C  0.89119643  0.50668983  0.66987773     0.96200
C1326       C  0.89461862  0.00754317  0.82937653     0.96000
N1327       N  0.98254587  0.71330856  0.56869164    -0.06300
N1328       N  0.97418208  0.68701384  0.58790672    -0.58400
N1329       N  0.50569883  0.79639079  0.56701251    -0.06000
N1330       N  0.51212175  0.82158589  0.58776278    -0.60500
N1331       N  0.97217200  0.79179209  0.56605053    -0.05600
N1332       N  0.95607812  0.81446558  0.58541399    -0.58400
N1333       N  0.51658091  0.71909920  0.57039016    -0.05200
N1334       N  0.53151875  0.69653373  0.59070288    -0.60900
C1335       C  0.50604199  0.67714059  0.60110078     0.95900
C1336       C  0.98129918  0.83243159  0.59911444     0.95700
N1337       N  0.56081686  0.79931177  0.97219006    -0.06500
N1338       N  0.57744061  0.82423680  0.95797078    -0.59000
N1339       N  0.57623131  0.72068316  0.52003270    -0.04600
N1340       N  0.59702224  0.69848210  0.53538548    -0.60200
N1341       N  0.57477484  0.72260574  0.97509232    -0.06500
N1342       N  0.59594285  0.69952241  0.96233931    -0.59300
N1343       N  0.56764023  0.79875699  0.51325687    -0.04200
N1344       N  0.58305247  0.82639108  0.52296798    -0.60300
Mn1345     Mn  0.54209717  0.75938876  0.54344785     1.18400
C1346       C  0.58967077  0.84121623  0.98453652     0.98000
C1347       C  0.61048126  0.68476432  0.98983418     0.98600
N1348       N  0.92142411  0.78636827  0.50411263    -0.06500
N1349       N  0.89798301  0.80941236  0.51297391    -0.62800
N1350       N  0.93043245  0.69984751  0.98581060    -0.05300
N1351       N  0.91119636  0.67386535  0.97865447    -0.63500
N1352       N  0.92900168  0.70761132  0.50590962    -0.06000
N1353       N  0.91001466  0.68169874  0.51473142    -0.63100
N1354       N  0.91905211  0.77669274  0.97603615    -0.04900
N1355       N  0.89811655  0.79865305  0.96084130    -0.63800
Mn1356     Mn  0.95027731  0.74936025  0.53712911     1.10700
C1357       C  0.88570856  0.81763679  0.98642414     0.99200
C1358       C  0.90233782  0.66704456  0.48463048     0.99300
N1359       N  0.51955227  0.71194405  0.92188994    -0.06000
N1360       N  0.53609720  0.68887306  0.90367643    -0.61400
N1361       N  0.97215200  0.78019467  0.91871811    -0.05400
N1362       N  0.95596235  0.80308674  0.89930035    -0.58100
N1363       N  0.50394331  0.78878276  0.91843044    -0.06700
N1364       N  0.51002922  0.81552839  0.89933415    -0.61000
N1365       N  0.98672858  0.70265629  0.92675732    -0.05700
N1366       N  0.97998464  0.67489855  0.90996530    -0.58200
Mn1367     Mn  0.54022331  0.75598616  0.94634191     1.20200
Mn1368     Mn  0.95140492  0.73917485  0.95108839     1.10100
Cl1369     Cl  0.49627495  0.75035089  0.99318917    -0.86100
C1370       C  0.51148378  0.66815568  0.89389427     0.96200
C1371       C  0.98115876  0.82241828  0.88704749     0.96000
N1372       N  0.78091101  0.92183224  0.98361630    -0.06300
N1373       N  0.80576732  0.90088655  0.97314248    -0.58400
N1374       N  0.70058563  0.93551439  0.52525323    -0.06000
N1375       N  0.67557295  0.91910517  0.53947638    -0.60500
N1376       N  0.70170156  0.92950382  0.98409087    -0.05600
N1377       N  0.67486986  0.91297367  0.97382120    -0.58400
N1378       N  0.77753906  0.92275356  0.52104473    -0.05200
N1379       N  0.80148795  0.90168816  0.53275625    -0.60900
C1380       C  0.82032161  0.88933866  0.00258284     0.95900
C1381       C  0.66028012  0.90258949  0.00330372     0.95700
N1382       N  0.70992342  0.52665815  0.56929923    -0.06500
N1383       N  0.68695489  0.54321500  0.58780919    -0.59000
N1384       N  0.78797322  0.97742991  0.57565268    -0.04600
N1385       N  0.81194861  0.96155681  0.59365278    -0.60200
N1386       N  0.78724738  0.51257755  0.57156713    -0.06500
N1387       N  0.81329849  0.51988224  0.59087947    -0.59300
N1388       N  0.71057800  0.99105028  0.57945426    -0.04200
N1389       N  0.68371611  0.98409420  0.59791299    -0.60300
Mn1390     Mn  0.74404361  0.95604675  0.55099999     1.18400
C1391       C  0.66775246  0.51829697  0.60046062     0.98000
C1392       C  0.83163026  0.98699441  0.60370291     0.98600
N1393       N  0.70580874  0.98885218  0.92725117    -0.06500
N1394       N  0.68128283  0.98108995  0.90598966    -0.62800
N1395       N  0.78235401  0.51183623  0.92610676    -0.05300
N1396       N  0.80770896  0.51994056  0.90571762    -0.63500
N1397       N  0.78370731  0.97989310  0.92800382    -0.06000
N1398       N  0.80689551  0.96527760  0.90831119    -0.63100
N1399       N  0.70431504  0.52182252  0.93078201    -0.04900
N1400       N  0.68136992  0.53741919  0.91128879    -0.63800
Mn1401     Mn  0.74271404  0.95416396  0.95475649     1.10700
C1402       C  0.66381165  0.51192034  0.89806215     0.99200
C1403       C  0.82496412  0.99130108  0.89641124     0.99300
N1404       N  0.79606625  0.56733454  0.51428458    -0.06000
N1405       N  0.81995555  0.58549797  0.52773600    -0.61400
N1406       N  0.71127336  0.57721828  0.98859938    -0.05400
N1407       N  0.68796478  0.60052050  0.97944793    -0.58100
N1408       N  0.71891184  0.58014334  0.51061093    -0.06700
N1409       N  0.69503079  0.60235035  0.52035671    -0.61000
N1410       N  0.78915874  0.56830462  0.98269742    -0.05700
N1411       N  0.81378762  0.58539853  0.96859067    -0.58200
Mn1412     Mn  0.75308622  0.54728886  0.54202724     1.20200
Mn1413     Mn  0.74675413  0.54550805  0.95631725     1.10100
Cl1414     Cl  0.74583994  0.49921971  0.00141237    -0.86100
C1415       C  0.83153122  0.59680863  0.99511684     0.96200
C1416       C  0.67598469  0.61288974  0.00942104     0.96000
C1417       C  0.86038675  0.84542287  0.98078677    -0.16600
C1418       C  0.84823919  0.86396245  0.00639315    -0.31800
H1419       H  0.85078348  0.84986370  0.95525260     0.12400
H1420       H  0.85143446  0.85396276  0.53163957     0.13000
C1421       C  0.87586739  0.63555154  0.01568968    -0.16600
C1422       C  0.86032200  0.61982499  0.99028197    -0.31800
H1423       H  0.86843653  0.63034213  0.04173946     0.12400
H1424       H  0.86996371  0.62966239  0.53105953     0.13000
C1425       C  0.63095241  0.88057263  0.00677978    -0.16600
C1426       C  0.61447991  0.86819636  0.98027795    -0.31800
H1427       H  0.62218025  0.87737673  0.54230605     0.12400
H1428       H  0.62130217  0.87588350  0.95467506     0.13000
C1429       C  0.63605992  0.65675162  0.98676191    -0.16600
C1430       C  0.65020016  0.64066426  0.01346613    -0.31800
H1431       H  0.64336822  0.64908729  0.96128870     0.12400
H1432       H  0.64703135  0.64811871  0.46176020     0.13000
C1433       C  0.85264285  0.98621395  0.87110380    -0.16600
C1434       C  0.86945701  0.01191880  0.85725147    -0.31800
H1435       H  0.85833772  0.96045395  0.86268548     0.12400
H1436       H  0.85772424  0.53570478  0.86306109     0.13000
C1437       C  0.63748582  0.51779495  0.87158605    -0.16600
C1438       C  0.62697306  0.99111883  0.85310779    -0.31800
H1439       H  0.63131255  0.54383820  0.86387429     0.12400
H1440       H  0.63376042  0.96526425  0.86097704     0.13000
C1441       C  0.62365450  0.49783188  0.63822591    -0.16600
C1442       C  0.64021450  0.52409586  0.62526267    -0.31800
H1443       H  0.62948269  0.47231315  0.62919113     0.12400
H1444       H  0.63797685  0.04591522  0.64119555     0.13000
C1445       C  0.86730907  0.51025648  0.64147074    -0.16600
C1446       C  0.85954782  0.98245866  0.62791120    -0.31800
H1447       H  0.86123986  0.53584554  0.63230468     0.12400
H1448       H  0.86569729  0.95709799  0.63762979     0.13000
C1449       C  0.98955814  0.62057527  0.86114104    -0.16600
C1450       C  0.51705115  0.64074023  0.86954815    -0.31800
H1451       H  0.96420699  0.62588641  0.87104763     0.12700
H1452       H  0.54237314  0.63617775  0.85928192     0.13000
C1453       C  0.00342258  0.86775251  0.85138058    -0.16600
C1454       C  0.97640477  0.85114009  0.86298373    -0.31800
H1455       H  0.02872986  0.86047286  0.86033602     0.12400
H1456       H  0.44741468  0.85876047  0.85392268     0.13000
C1457       C  0.97590683  0.85906180  0.62534941    -0.16600
C1458       C  0.50039931  0.87499065  0.63925085    -0.31800
H1459       H  0.44870442  0.86497873  0.63241152     0.12400
H1460       H  0.02786144  0.86753119  0.63114691     0.13000
C1461       C  0.48598347  0.63251530  0.63937712    -0.16600
C1462       C  0.51155866  0.64952328  0.62613070    -0.31800
H1463       H  0.95775224  0.63821705  0.63302529     0.12400
H1464       H  0.53726255  0.64440212  0.63518700     0.13000
loop_ 
_geom_bond_atom_site_label_1 
_geom_bond_atom_site_label_2 
_geom_bond_distance 
_geom_bond_site_symmetry_2 
_ccdc_geom_bond_type 
N1            N2   1.322       .  A
N1          N373   1.317       .  A
N1          Mn30   2.234       .  S
N2          C375   1.359       .  A
N3            N4   1.324       .  A
N3          N371   1.317   1_545  A
N3          Mn19   2.228       .  S
N4          C376   1.358   1_545  A
N5            N6   1.322       .  A
N5          N369   1.318       .  A
N5          Mn30   2.222       .  S
N6           C10   1.353       .  A
N7            N8   1.315       .  A
N7          N367   1.315   1_545  A
N7          Mn19   2.155       .  S
N8            C9   1.342       .  A
C9          N368   1.360   1_545  A
C9          C160   1.467       .  S
C10         N370   1.357       .  A
C10         C157   1.488       .  S
N11          N12   1.319       .  A
N11         N749   1.314       .  A
N11         Mn41   2.189       .  S
N12          C20   1.350       .  A
N13          N14   1.327       .  A
N13         N747   1.314   1_455  A
N13         Mn19   2.237       .  S
N14          C21   1.361   1_455  A
N15          N16   1.316       .  A
N15         N745   1.314       .  A
N15         Mn41   2.173       .  S
N16         C753   1.345       .  A
N17          N18   1.317       .  A
N17         N743   1.313   1_455  A
N17         Mn19   2.174       .  S
N18         C752   1.350   1_455  A
Mn19        Cl43   2.554   1_455  S
C20         N750   1.352       .  A
C20         C168   1.463       .  S
C21         N748   1.343       .  A
C21         C180   1.472       .  S
N22          N23   1.324       .  A
N22         N760   1.317   1_455  A
N22         Mn30   2.238       .  S
N23         C763   1.361   1_455  A
N24          N25   1.328       .  A
N24         N758   1.319       .  A
N24         Mn42   2.234       .  S
N25         C764   1.359       .  A
N26          N27   1.323       .  A
N26         N756   1.317   1_455  A
N26         Mn30   2.228       .  S
N27          C32   1.355       .  A
N28          N29   1.313       .  A
N28         N754   1.316       .  A
N28         Mn42   2.143       .  S
N29          C31   1.338       .  A
Mn30       Cl409   2.538   1_455  S
C31         N755   1.366       .  A
C31         C172   1.474       .  S
C32         N757   1.357   1_455  A
C32         C177   1.493       .  S
N33          N34   1.318       .  A
N33         N405   1.314   1_545  A
N33         Mn41   2.188       .  S
N34          C44   1.350       .  A
N35          N36   1.327       .  A
N35         N403   1.315       .  A
N35         Mn42   2.234       .  S
N36          C45   1.359       .  A
N37          N38   1.315       .  A
N37         N401   1.314   1_545  A
N37         Mn41   2.173       .  S
N38         C411   1.346       .  A
N39          N40   1.316       .  A
N39         N399   1.315       .  A
N39         Mn42   2.165       .  S
N40         C410   1.347       .  A
Mn41       Cl775   2.535       .  S
Mn42      Cl1141   2.554       .  S
Cl43       Mn396   2.533   1_645  S
Cl43       Mn773   2.531       .  S
Cl43      Mn1140   2.556   1_545  S
C44         N406   1.350   1_545  A
C44         C164   1.457       .  S
C45         N404   1.346       .  A
C45         C153   1.473       .  S
N46          N47   1.323       .  A
N46         N784   1.319       .  A
N46         Mn75   2.232       .  S
N47         C786   1.358       .  A
N48          N49   1.323       .  A
N48         N782   1.318   1_455  A
N48         Mn64   2.218       .  S
N49         C787   1.354   1_455  A
N50          N51   1.325       .  A
N50         N780   1.320       .  A
N50         Mn75   2.236       .  S
N51          C55   1.356       .  A
N52          N53   1.319       .  A
N52         N778   1.318   1_455  A
N52         Mn64   2.181       .  S
N53          C54   1.346       .  A
C54         N779   1.359   1_455  A
C54         C181   1.476       .  S
C55         N781   1.357       .  A
C55         C176   1.494       .  S
N56          N57   1.315       .  A
N56         N245   1.315       .  A
N56         Mn86   2.175       .  S
N57          C65   1.344       .  A
N58          N59   1.326       .  A
N58         N243   1.315   1_554  A
N58         Mn64   2.236       .  S
N59         C249   1.361   1_554  A
N60          N61   1.318       .  A
N60         N241   1.313       .  A
N60         Mn86   2.181       .  S
N61          C66   1.352       .  A
N62          N63   1.317       .  A
N62         N239   1.315   1_554  A
N62         Mn64   2.181       .  S
N63         C248   1.347       .  A
Mn64       Cl271   2.536   1_454  S
C65         N246   1.361       .  A
C65         C145   1.472       .  S
C66         N242   1.352       .  A
C66         C148   1.472       .  S
N67          N68   1.324       .  A
N67         N256   1.316   1_554  A
N67         Mn75   2.235       .  S
N68         C259   1.361   1_554  A
N69          N70   1.327       .  A
N69         N254   1.317       .  A
N69         Mn87   2.240       .  S
N70         C260   1.360       .  A
N71          N72   1.329       .  A
N71         N252   1.317   1_554  A
N71         Mn75   2.249       .  S
N72          C77   1.362   1_554  A
N73          N74   1.318       .  A
N73         N250   1.317       .  A
N73         Mn87   2.182       .  S
N74          C76   1.348       .  A
Mn75      Cl1003   2.557   1_554  S
C76         N251   1.357       .  A
C76         C136   1.473       .  S
C77         N253   1.348       .  A
C77         C323   1.488       .  S
N78          N79   1.322       .  A
N78         N816   1.314   1_455  A
N78         Mn86   2.196       .  S
N79          C89   1.354       .  A
N80          N81   1.330       .  A
N80         N814   1.314       .  A
N80         Mn87   2.258       .  S
N81          C90   1.367       .  A
N82          N83   1.315       .  A
N82         N812   1.314   1_455  A
N82         Mn86   2.161       .  S
N83         C822   1.342       .  A
N84          N85   1.317       .  A
N84         N810   1.313       .  A
N84         Mn87   2.180       .  S
N85         C821   1.351       .  A
Mn86        Cl88   2.542   1_455  S
Mn87       Cl820   2.566       .  S
Cl88       Mn247   2.548   1_655  S
Cl88       Mn990   2.553       .  S
Cl88       Mn819   2.544       .  S
C89         N817   1.349   1_455  A
C89         C169   1.466       .  S
C90         N815   1.336       .  A
C90         C173   1.470       .  S
N91          N92   1.322       .  A
N91         N280   1.315       .  A
N91        Mn120   2.215       .  S
N92          C99   1.356       .  A
N93          N94   1.321       .  A
N93         N278   1.314   1_554  A
N93        Mn109   2.213       .  S
N94         C283   1.356   1_554  A
N95          N96   1.324       .  A
N95         N276   1.315       .  A
N95        Mn120   2.234       .  S
N96         C100   1.360       .  A
N97          N98   1.313       .  A
N97         N274   1.313   1_554  A
N97        Mn109   2.143       .  S
N98         C282   1.340       .  A
C99         N281   1.349       .  A
C99         C137   1.474       .  S
C100        N277   1.345       .  A
C100        C144   1.474       .  S
N101        N102   1.325       .  A
N101        N473   1.312   1_545  A
N101       Mn131   2.229       .  S
N102        C110   1.361   1_545  A
N103        N104   1.324       .  A
N103        N471   1.313       .  A
N103       Mn109   2.220       .  S
N104        C111   1.357       .  A
N105        N106   1.314       .  A
N105        N469   1.312   1_545  A
N105       Mn131   2.166       .  S
N106        C477   1.348   1_545  A
N107        N108   1.313       .  A
N107        N467   1.313       .  A
N107       Mn109   2.143       .  S
N108        C476   1.341       .  A
Mn109      Cl682   2.543   1_554  S
C110        N474   1.340       .  A
C110        C161   1.465       .  S
C111        N472   1.346       .  A
C111        C165   1.468       .  S
N112        N113   1.324       .  A
N112        N484   1.319       .  A
N112       Mn120   2.217       .  S
N113        C487   1.356       .  A
N114        N115   1.317       .  A
N114        N482   1.316   1_545  A
N114       Mn132   2.199       .  S
N115        C488   1.353   1_545  A
N116        N117   1.324       .  A
N116        N480   1.319       .  A
N116       Mn120   2.217       .  S
N117        C122   1.353       .  A
N118        N119   1.318       .  A
N118        N478   1.316   1_545  A
N118       Mn132   2.193       .  S
N119        C121   1.348       .  A
Mn120      Cl499   2.558       .  S
C121        N479   1.358   1_545  A
C121        C156   1.475       .  S
C122        N481   1.354       .  A
C122        C152   1.481       .  S
N123        N124   1.322       .  A
N123        N312   1.317   1_554  A
N123       Mn131   2.210       .  S
N124        C317   1.351       .  A
N125        N126   1.318       .  A
N125        N310   1.315       .  A
N125       Mn132   2.192       .  S
N126        C135   1.349       .  A
N127        N128   1.316       .  A
N127        N308   1.317   1_554  A
N127       Mn131   2.166       .  S
N128        C318   1.344       .  A
N129        N130   1.322       .  A
N129        N306   1.317       .  A
N129       Mn132   2.205       .  S
N130        C134   1.351       .  A
Mn131      Cl316   2.548   1_545  S
Mn132      Cl133   2.529       .  S
Cl133      Mn658   2.530   1_545  S
Cl133      Mn486   2.565   1_545  S
Cl133      Mn314   2.565       .  S
C134        N307   1.358       .  A
C134        C141   1.486       .  S
C135        N311   1.355       .  A
C135        C149   1.468       .  S
C136        C137   1.339       .  D
C136        H138   1.087       .  S
C137        H322   1.087       .  S
H139        C320   1.087       .  S
C140        C260   1.484       .  S
C140        C141   1.343       .  D
C140        H142   1.087       .  S
C141        H326   1.086       .  S
H143        C324   1.086       .  S
C144        C145   1.334       .  D
C144        H329   1.087       .  S
C145        H147   1.087       .  S
H146        C327   1.087       .  S
C148        C149   1.340       .  D
C148        H150   1.086       .  S
C149        H334   1.087       .  S
H151        C332   1.087       .  S
C152        C153   1.341       .  D
C152        H154   1.086       .  S
C153        H521   1.087       .  S
H155        C519   1.087       .  S
C156        C523   1.338   1_545  D
C156        H158   1.087       .  S
C157        C522   1.347       .  D
C157        H159   1.086       .  S
C160        C161   1.329   1_545  D
C160        H162   1.086       .  S
C161        H529   1.087       .  S
H163        C527   1.087       .  S
C164        C531   1.339   1_545  D
C164        H166   1.087       .  S
C165        C530   1.347       .  D
C165        H167   1.087       .  S
C168        C901   1.339       .  D
C168        H170   1.086       .  S
C169        C900   1.343   1_455  D
C169        H171   1.087       .  S
C172        C173   1.326       .  D
C172        H174   1.086       .  S
C173        H907   1.087       .  S
H175        C905   1.086       .  S
C176        C909   1.350       .  D
C176        H910   1.086       .  S
C177        C908   1.353   1_455  D
C177        H911   1.086       .  S
H178        C908   1.085       .  S
H179        C909   1.086       .  S
C180        C181   1.335   1_655  D
C180        H914   1.087       .  S
C181        H183   1.087       .  S
H182        C912   1.087       .  S
N184        N185   1.316       .  A
N184        N556   1.316       .  A
N184       Mn213   2.185       .  S
N185        C558   1.347       .  A
N186        N554   1.318   1_545  A
N186        N187   1.328       .  A
N186       Mn202   2.239       .  S
N187        C559   1.360   1_545  A
N188        N552   1.316       .  A
N188        N189   1.320       .  A
N188       Mn213   2.202       .  S
N189        C193   1.350       .  A
N190        N550   1.317   1_545  A
N190        N191   1.324       .  A
N190       Mn202   2.210       .  S
N191        C192   1.355   1_545  A
C192        N551   1.351       .  A
C192        C343   1.476       .  S
C193        N553   1.360       .  A
C193        C340   1.488       .  S
N194        N932   1.315       .  A
N194        N195   1.314       .  A
N194       Mn224   2.170       .  S
N195        C203   1.345       .  A
N196        N197   1.328       .  A
N196        N930   1.316   1_455  A
N196       Mn202   2.243       .  S
N197        C204   1.363   1_455  A
N198        N928   1.315       .  A
N198        N199   1.316       .  A
N198       Mn224   2.178       .  S
N199        C936   1.345       .  A
N200        N926   1.315   1_455  A
N200        N201   1.323       .  A
N200       Mn202   2.208       .  S
N201        C935   1.355   1_455  A
Mn202      Cl226   2.579   1_455  S
C203        N933   1.355       .  A
C203        C351   1.458       .  S
C204        N931   1.343       .  A
C204        C363   1.478       .  S
N205        N206   1.316       .  A
N205        N943   1.317   1_455  A
N205       Mn213   2.180       .  S
N206        C946   1.345       .  A
N207        N941   1.316       .  A
N207        N208   1.329       .  A
N207       Mn225   2.248       .  S
N208        C947   1.363       .  A
N209        N939   1.317   1_455  A
N209        N210   1.318       .  A
N209       Mn213   2.198       .  S
N210        C215   1.348   1_455  A
N211        N937   1.315       .  A
N211        N212   1.322       .  A
N211       Mn225   2.204       .  S
N212        C214   1.355       .  A
Mn213      Cl592   2.516   1_455  S
C214        N938   1.346       .  A
C214        C355   1.463       .  S
C215        N940   1.360       .  A
C215        C360   1.484   1_655  S
N216        N217   1.315       .  A
N216        N588   1.315   1_545  A
N216       Mn224   2.170       .  S
N217        C227   1.345       .  A
N218        N219   1.329       .  A
N218        N586   1.315       .  A
N218       Mn225   2.251       .  S
N219        C228   1.364       .  A
N220        N584   1.315   1_545  A
N220        N221   1.318       .  A
N220       Mn224   2.180       .  S
N221        C594   1.346       .  A
N222        N582   1.314       .  A
N222        N223   1.321       .  A
N222       Mn225   2.206       .  S
N223        C593   1.356       .  A
Mn224      Cl958   2.517       .  S
Mn225     Cl1324   2.575       .  S
Cl226      Mn579   2.521   1_645  S
Cl226      Mn956   2.520       .  S
Cl226     Mn1323   2.577   1_545  S
C227        N589   1.358   1_545  A
C227        C347   1.465       .  S
C228        N587   1.342       .  A
C228        C336   1.478       .  S
N229        N230   1.324       .  A
N229        N967   1.318       .  A
N229       Mn258   2.236       .  S
N230        C969   1.359       .  A
N231        N965   1.318   1_455  A
N231        N232   1.323       .  A
N231       Mn247   2.217       .  S
N232        C970   1.356   1_455  A
N233        N963   1.318       .  A
N233        N234   1.318       .  A
N233       Mn258   2.188       .  S
N234        C238   1.346       .  A
N235        N961   1.319   1_455  A
N235        N236   1.316       .  A
N235       Mn247   2.184       .  S
N236        C237   1.344       .  A
C237        N962   1.363   1_455  A
C237        C364   1.479       .  S
C238        N964   1.362       .  A
C238        C359   1.483       .  S
N239        N240   1.322       .  A
N239       Mn269   2.210       .  S
N240        C248   1.357   1_556  A
N241        N242   1.322       .  A
N241       Mn247   2.204       .  S
N243        N244   1.316       .  A
N243       Mn269   2.168       .  S
N244        C249   1.344       .  A
N245        N246   1.325       .  A
N245       Mn247   2.225       .  S
C248        C328   1.469       .  S
C249        C331   1.473       .  S
N250        N251   1.323       .  A
N250       Mn258   2.230       .  S
N252        N253   1.319       .  A
N252       Mn270   2.194       .  S
N254        N255   1.319       .  A
N254       Mn258   2.196       .  S
N255        C260   1.349       .  A
N256        N257   1.315       .  A
N256       Mn270   2.159       .  S
N257        C259   1.342       .  A
Mn258      Cl820   2.532       .  S
C259        C319   1.468       .  S
N261        N262   1.322       .  A
N261        N999   1.314   1_455  A
N261       Mn269   2.201       .  S
N262        C272   1.352       .  A
N263        N264   1.321       .  A
N263        N997   1.313       .  A
N263       Mn270   2.194       .  S
N264        C273   1.350       .  A
N265        N995   1.314   1_455  A
N265        N266   1.319       .  A
N265       Mn269   2.191       .  S
N266       C1005   1.355   1_455  A
N267        N993   1.313       .  A
N267        N268   1.316       .  A
N267       Mn270   2.181       .  S
N268       C1004   1.353       .  A
Mn269      Cl271   2.559   1_455  S
Mn270     Cl1003   2.541       .  S
Cl271      Mn807   2.561   1_556  S
Cl271     Mn1002   2.532       .  S
C272       N1000   1.352   1_455  A
C272        C352   1.471       .  S
C273        N998   1.353       .  A
C273        C356   1.469       .  S
N274        N275   1.325       .  A
N274       Mn303   2.237       .  S
N275        C282   1.361   1_556  A
N276        N277   1.317       .  A
N276       Mn292   2.169       .  S
N278        N279   1.318       .  A
N278       Mn303   2.178       .  S
N279        C283   1.348       .  A
N280        N281   1.319       .  A
N280       Mn292   2.191       .  S
C282        C320   1.466       .  S
C283        C327   1.470       .  S
N284        N656   1.315   1_545  A
N284        N285   1.325       .  A
N284       Mn314   2.222       .  S
N285        C293   1.356       .  A
N286        N287   1.317       .  A
N286        N654   1.314       .  A
N286       Mn292   2.173       .  S
N287        C294   1.347       .  A
N288        N652   1.315   1_545  A
N288        N289   1.321       .  A
N288       Mn314   2.213       .  S
N289        C660   1.357   1_545  A
N290        N650   1.313       .  A
N290        N291   1.317       .  A
N290       Mn292   2.192       .  S
N291        C659   1.353       .  A
Mn292      Cl499   2.539       .  S
C293        N657   1.351   1_545  A
C293        C344   1.481       .  S
C294        N655   1.355       .  A
C294        C348   1.463       .  S
N295        N296   1.324       .  A
N295        N667   1.319       .  A
N295       Mn303   2.228       .  S
N296        C670   1.357       .  A
N297        N665   1.319   1_545  A
N297        N298   1.328       .  A
N297       Mn315   2.251       .  S
N298        C671   1.362   1_545  A
N299        N663   1.318       .  A
N299        N300   1.315       .  A
N299       Mn303   2.165       .  S
N300        C305   1.342       .  A
N301        N661   1.319   1_545  A
N301        N302   1.323       .  A
N301       Mn315   2.219       .  S
N302        C304   1.352       .  A
Mn303      Cl682   2.542       .  S
C304        N662   1.357   1_545  A
C304        C339   1.488       .  S
C305        N664   1.364       .  A
C305        C335   1.478       .  S
N306        N307   1.325       .  A
N306       Mn314   2.228       .  S
N308        N309   1.325       .  A
N308       Mn315   2.247       .  S
N309        C318   1.361   1_556  A
N310        N311   1.322       .  A
N310       Mn314   2.204       .  S
N312        N313   1.327       .  A
N312       Mn315   2.236       .  S
N313        C317   1.360   1_556  A
Mn315      Cl316   2.550   1_546  S
Cl316      Mn475   2.533       .  S
Cl316      Mn669   2.555   1_554  S
C317        C324   1.490       .  S
C318        C332   1.474       .  S
C319        C320   1.329   1_556  D
C319        H321   1.087       .  S
C323        C324   1.343   1_556  D
C323        H325   1.086       .  S
C327        C328   1.337   1_556  D
C328        H330   1.087       .  S
C331        C332   1.334   1_556  D
C331        H333   1.087       .  S
C335        C336   1.333       .  D
C335        H337   1.087       .  S
C336        H704   1.087       .  S
H338        C702   1.087       .  S
C339        C706   1.344   1_545  D
C339        H341   1.086       .  S
C340        C705   1.346       .  D
C340        H342   1.086       .  S
C343        C344   1.346   1_565  D
C343        H345   1.087       .  S
C344        H712   1.086       .  S
H346        C710   1.086       .  S
C347        C714   1.333   1_545  D
C347        H349   1.086       .  S
C348        C713   1.334       .  D
C348        H350   1.086       .  S
C351       C1084   1.335       .  D
C351        H353   1.087       .  S
C352       C1083   1.339   1_455  D
C352        H354   1.086       .  S
C355        C356   1.338       .  D
C355        H357   1.087       .  S
C356       H1090   1.086       .  S
H358       C1088   1.086       .  S
C359       C1092   1.337       .  D
C359       H1093   1.087       .  S
C360       C1091   1.344   1_455  D
C360       H1094   1.087       .  S
H361       C1091   1.086       .  S
H362       C1092   1.087       .  S
C363        C364   1.334   1_655  D
C363       H1097   1.087       .  S
C364        H366   1.087       .  S
H365       C1095   1.087       .  S
N367        N368   1.323       .  A
N367       Mn396   2.234       .  S
N369        N370   1.326       .  A
N369       Mn385   2.224       .  S
N371        N372   1.318       .  A
N371       Mn396   2.186       .  S
N372        C376   1.347       .  A
N373        N374   1.314       .  A
N373       Mn385   2.155       .  S
N374        C375   1.341       .  A
C375        C526   1.462       .  S
C376        C523   1.475       .  S
N377       N1115   1.314       .  A
N377        N378   1.322       .  A
N377       Mn407   2.216       .  S
N378        C386   1.355       .  A
N379        N380   1.329       .  A
N379       N1113   1.314   1_455  A
N379       Mn385   2.238       .  S
N380        C387   1.361   1_455  A
N381       N1111   1.315       .  A
N381        N382   1.316       .  A
N381       Mn407   2.178       .  S
N382       C1119   1.347       .  A
N383       N1109   1.314   1_455  A
N383        N384   1.318       .  A
N383       Mn385   2.181       .  S
N384       C1118   1.351   1_455  A
Mn385      Cl409   2.561   1_455  S
C386       N1116   1.348       .  A
C386        C534   1.468       .  S
C387       N1114   1.347       .  A
C387        C546   1.480       .  S
N388        N389   1.323       .  A
N388       N1126   1.316   1_455  A
N388       Mn396   2.230       .  S
N389       C1129   1.359   1_455  A
N390       N1124   1.318       .  A
N390        N391   1.326       .  A
N390       Mn408   2.222       .  S
N391       C1130   1.356       .  A
N392       N1122   1.317   1_455  A
N392        N393   1.318       .  A
N392       Mn396   2.190       .  S
N393        C398   1.348       .  A
N394       N1120   1.317       .  A
N394        N395   1.315       .  A
N394       Mn408   2.162       .  S
N395        C397   1.343       .  A
C397       N1121   1.360       .  A
C397        C538   1.467       .  S
C398       N1123   1.362   1_455  A
C398        C543   1.486       .  S
N399        N400   1.322       .  A
N399       Mn407   2.217       .  S
N400        C410   1.355       .  A
N401        N402   1.327       .  A
N401       Mn408   2.227       .  S
N402        C411   1.359   1_565  A
N403        N404   1.315       .  A
N403       Mn407   2.175       .  S
N405        N406   1.315       .  A
N405       Mn408   2.173       .  S
Mn407     Cl1141   2.545       .  S
Mn408      Cl775   2.557   1_565  S
Cl409     Mn1139   2.536       .  S
Cl409      Mn774   2.558       .  S
C410        C530   1.466       .  S
C411        C519   1.471       .  S
N412        N413   1.321       .  A
N412       N1150   1.320       .  A
N412       Mn441   2.222       .  S
N413       C1152   1.356       .  A
N414       N1148   1.318   1_455  A
N414        N415   1.327       .  A
N414       Mn430   2.242       .  S
N415       C1153   1.361   1_455  A
N416       N1146   1.320       .  A
N416        N417   1.325       .  A
N416       Mn441   2.243       .  S
N417        C421   1.357       .  A
N418       N1144   1.318   1_455  A
N418        N419   1.323       .  A
N418       Mn430   2.210       .  S
N419        C420   1.353       .  A
C420       N1145   1.357   1_455  A
C420        C547   1.486       .  S
C421       N1147   1.355       .  A
C421        C542   1.494       .  S
N422        N611   1.315       .  A
N422        N423   1.315       .  A
N422       Mn452   2.177       .  S
N423        C431   1.344       .  A
N424        N425   1.328       .  A
N424        N609   1.315   1_554  A
N424       Mn430   2.249       .  S
N425        C615   1.364   1_554  A
N426        N607   1.313       .  A
N426        N427   1.318       .  A
N426       Mn452   2.181       .  S
N427        C432   1.352       .  A
N428        N605   1.316   1_554  A
N428        N429   1.320       .  A
N428       Mn430   2.214       .  S
N429        C614   1.356   1_554  A
Mn430      Cl637   2.562   1_454  S
C431        N612   1.360       .  A
C431        C511   1.470       .  S
C432        N608   1.351       .  A
C432        C514   1.470       .  S
N433        N434   1.323       .  A
N433        N622   1.316   1_554  A
N433       Mn441   2.229       .  S
N434        C625   1.360   1_554  A
N435        N620   1.317       .  A
N435        N436   1.320       .  A
N435       Mn453   2.197       .  S
N436        C626   1.348       .  A
N437        N618   1.317   1_554  A
N437        N438   1.331       .  A
N437       Mn441   2.256       .  S
N438        C443   1.363   1_554  A
N439        N616   1.317       .  A
N439        N440   1.320       .  A
N439       Mn453   2.192       .  S
N440        C442   1.350       .  A
Mn441     Cl1369   2.554   1_554  S
C442        N617   1.356       .  A
C442        C502   1.477       .  S
C443        N619   1.347       .  A
C443        C689   1.489       .  S
N444        N445   1.322       .  A
N444       N1182   1.314   1_455  A
N444       Mn452   2.196       .  S
N445        C455   1.354       .  A
N446        N447   1.324       .  A
N446       N1180   1.314       .  A
N446       Mn453   2.219       .  S
N447        C456   1.359       .  A
N448       N1178   1.313   1_455  A
N448        N449   1.315       .  A
N448       Mn452   2.162       .  S
N449       C1188   1.343       .  A
N450       N1176   1.314       .  A
N450        N451   1.315       .  A
N450       Mn453   2.177       .  S
N451       C1187   1.347       .  A
Mn452      Cl454   2.543   1_455  S
Mn453     Cl1186   2.541       .  S
Cl454      Mn613   2.547   1_655  S
Cl454     Mn1356   2.556       .  S
Cl454     Mn1185   2.542       .  S
C455       N1183   1.349   1_455  A
C455        C535   1.468       .  S
C456       N1181   1.343       .  A
C456        C539   1.466       .  S
N457        N458   1.324       .  A
N457        N646   1.316       .  A
N457       Mn486   2.219       .  S
N458        C465   1.357       .  A
N459        N644   1.315   1_554  A
N459        N460   1.315       .  A
N459       Mn475   2.177       .  S
N460        C649   1.345       .  A
N461        N642   1.315       .  A
N461        N462   1.322       .  A
N461       Mn486   2.221       .  S
N462        C466   1.358       .  A
N463        N640   1.313   1_554  A
N463        N464   1.312       .  A
N463       Mn475   2.140       .  S
N464        C648   1.340       .  A
C465        N647   1.348       .  A
C465        C503   1.475       .  S
C466        N643   1.347       .  A
C466        C510   1.474       .  S
N467        N468   1.323       .  A
N467       Mn497   2.224       .  S
N468        C476   1.360       .  A
N469        N470   1.320       .  A
N469       Mn475   2.186       .  S
N470        C477   1.351       .  A
N471        N472   1.313       .  A
N471       Mn497   2.155       .  S
N473        N474   1.313       .  A
N473       Mn475   2.144       .  S
C476        C527   1.461       .  S
C477        C531   1.459       .  S
N478        N479   1.324       .  A
N478       Mn486   2.220       .  S
N480        N481   1.319       .  A
N480       Mn498   2.207       .  S
N482        N483   1.324       .  A
N482       Mn486   2.212       .  S
N483        C488   1.354       .  A
N484        N485   1.323       .  A
N484       Mn498   2.232       .  S
N485        C487   1.354       .  A
C487        C522   1.489       .  S
C488        C518   1.480       .  S
N489        N490   1.323       .  A
N489        N678   1.318   1_554  A
N489       Mn497   2.218       .  S
N490        C683   1.353       .  A
N491        N492   1.318       .  A
N491        N676   1.316       .  A
N491       Mn498   2.194       .  S
N492        C501   1.350       .  A
N493        N674   1.317   1_554  A
N493        N494   1.314       .  A
N493       Mn497   2.149       .  S
N494        C684   1.340       .  A
N495        N672   1.317       .  A
N495        N496   1.331       .  A
N495       Mn498   2.257       .  S
N496        C500   1.364       .  A
Mn497      Cl682   2.540   1_554  S
Mn498      Cl499   2.548       .  S
Cl499      Mn680   2.548       .  S
C500        N673   1.345       .  A
C500        C507   1.489       .  S
C501        N677   1.354       .  A
C501        C515   1.468       .  S
C502        C503   1.340       .  D
C502        H504   1.087       .  S
C503        H688   1.087       .  S
H505        C686   1.087       .  S
C506        C626   1.490       .  S
C506        C507   1.341       .  D
C506        H508   1.086       .  S
C507        H692   1.087       .  S
H509        C690   1.086       .  S
C510        C511   1.335       .  D
C510        H695   1.086       .  S
C511        H513   1.087       .  S
H512        C693   1.087       .  S
C514        C515   1.340       .  D
C514        H516   1.086       .  S
C515        H700   1.087       .  S
H517        C698   1.087       .  S
C518        C519   1.341   1_565  D
C518        H520   1.086       .  S
C522        H524   1.086       .  S
C523        H525   1.087       .  S
C526        C527   1.328       .  D
C526        H528   1.087       .  S
C530        H532   1.087       .  S
C531        H533   1.086       .  S
C534       C1267   1.346       .  D
C534        H536   1.087       .  S
C535       C1266   1.342   1_455  D
C535        H537   1.086       .  S
C538        C539   1.331       .  D
C538        H540   1.086       .  S
C539       H1273   1.086       .  S
H541       C1271   1.086       .  S
C542       C1275   1.352       .  D
C542       H1276   1.085       .  S
C543       C1274   1.341   1_455  D
C543       H1277   1.087       .  S
H544       C1274   1.086       .  S
H545       C1275   1.086       .  S
C546        C547   1.343   1_655  D
C546       H1280   1.087       .  S
C547        H549   1.086       .  S
H548       C1278   1.087       .  S
N550        N551   1.319       .  A
N550       Mn579   2.210       .  S
N552        N553   1.328       .  A
N552       Mn568   2.236       .  S
N554        N555   1.319       .  A
N554       Mn579   2.201       .  S
N555        C559   1.349       .  A
N556        N557   1.323       .  A
N556       Mn568   2.211       .  S
N557        C558   1.356       .  A
C558        C709   1.467       .  S
C559        C706   1.485       .  S
N560       N1298   1.314       .  A
N560        N561   1.314       .  A
N560       Mn590   2.169       .  S
N561        C569   1.344       .  A
N562        N563   1.327       .  A
N562       N1296   1.315   1_455  A
N562       Mn568   2.237       .  S
N563        C570   1.361   1_455  A
N564       N1294   1.315       .  A
N564        N565   1.314       .  A
N564       Mn590   2.160       .  S
N565       C1302   1.342       .  A
N566       N1292   1.315   1_455  A
N566        N567   1.322       .  A
N566       Mn568   2.209       .  S
N567       C1301   1.356   1_455  A
Mn568      Cl592   2.577   1_455  S
C569       N1299   1.355       .  A
C569        C717   1.457       .  S
C570       N1297   1.345       .  A
C570        C729   1.479       .  S
N571        N572   1.319       .  A
N571       N1309   1.317   1_455  A
N571       Mn579   2.210       .  S
N572       C1312   1.351       .  A
N573       N1307   1.317       .  A
N573        N574   1.329       .  A
N573       Mn591   2.239       .  S
N574       C1313   1.361       .  A
N575       N1305   1.317   1_455  A
N575        N576   1.319       .  A
N575       Mn579   2.202       .  S
N576        C581   1.350   1_455  A
N577       N1303   1.316       .  A
N577        N578   1.323       .  A
N577       Mn591   2.211       .  S
N578        C580   1.356       .  A
C580       N1304   1.345       .  A
C580        C721   1.462       .  S
C581       N1306   1.360       .  A
C581        C726   1.485   1_655  S
N582        N583   1.315       .  A
N582       Mn590   2.170       .  S
N583        C593   1.345       .  A
N584        N585   1.328       .  A
N584       Mn591   2.245       .  S
N585        C594   1.362   1_565  A
N586        N587   1.315       .  A
N586       Mn590   2.162       .  S
N588        N589   1.322       .  A
N588       Mn591   2.215       .  S
Mn590     Cl1324   2.511       .  S
Mn591      Cl958   2.577   1_565  S
Cl592     Mn1322   2.517       .  S
Cl592      Mn957   2.577       .  S
C593        C713   1.461       .  S
C594        C702   1.483       .  S
N595        N596   1.325       .  A
N595       N1333   1.318       .  A
N595       Mn624   2.238       .  S
N596       C1335   1.361       .  A
N597       N1331   1.318   1_455  A
N597        N598   1.322       .  A
N597       Mn613   2.213       .  S
N598       C1336   1.355   1_455  A
N599       N1329   1.318       .  A
N599        N600   1.323       .  A
N599       Mn624   2.220       .  S
N600        C604   1.352       .  A
N601       N1327   1.318   1_455  A
N601        N602   1.317       .  A
N601       Mn613   2.187       .  S
N602        C603   1.345       .  A
C603       N1328   1.362   1_455  A
C603        C730   1.479       .  S
C604       N1330   1.357       .  A
C604        C725   1.487       .  S
N605        N606   1.320       .  A
N605       Mn635   2.184       .  S
N606        C614   1.349       .  A
N607        N608   1.321       .  A
N607       Mn613   2.202       .  S
N609        N610   1.312       .  A
N609       Mn635   2.149       .  S
N610        C615   1.339       .  A
N611        N612   1.326       .  A
N611       Mn613   2.222       .  S
C614        C694   1.473       .  S
C615        C697   1.470       .  S
N616        N617   1.322       .  A
N616       Mn624   2.223       .  S
N618        N619   1.318       .  A
N618       Mn636   2.189       .  S
N620        N621   1.329       .  A
N620       Mn624   2.247       .  S
N621        C626   1.363       .  A
N622        N623   1.315       .  A
N622       Mn636   2.162       .  S
N623        C625   1.342       .  A
Mn624     Cl1186   2.554       .  S
C625        C685   1.467       .  S
N627        N628   1.318       .  A
N627       N1365   1.314   1_455  A
N627       Mn635   2.184       .  S
N628        C638   1.347       .  A
N629        N630   1.321       .  A
N629       N1363   1.312       .  A
N629       Mn636   2.188       .  S
N630        C639   1.350       .  A
N631       N1361   1.313   1_455  A
N631        N632   1.316       .  A
N631       Mn635   2.167       .  S
N632       C1371   1.349   1_455  A
N633       N1359   1.313       .  A
N633        N634   1.316       .  A
N633       Mn636   2.185       .  S
N634       C1370   1.353       .  A
Mn635      Cl637   2.534   1_455  S
Mn636     Cl1369   2.543       .  S
Cl637     Mn1173   2.534   1_556  S
Cl637     Mn1368   2.560       .  S
C638       N1366   1.355   1_455  A
C638        C718   1.466       .  S
C639       N1364   1.353       .  A
C639        C722   1.469       .  S
N640        N641   1.326       .  A
N640       Mn669   2.236       .  S
N641        C648   1.362   1_556  A
N642        N643   1.318       .  A
N642       Mn658   2.178       .  S
N644        N645   1.325       .  A
N644       Mn669   2.218       .  S
N645        C649   1.359   1_556  A
N646        N647   1.318       .  A
N646       Mn658   2.191       .  S
C648        C686   1.464       .  S
C649        C693   1.468       .  S
N650        N651   1.322       .  A
N650       Mn680   2.195       .  S
N651        C659   1.352       .  A
N652        N653   1.316       .  A
N652       Mn658   2.176       .  S
N653        C660   1.345       .  A
N654        N655   1.319       .  A
N654       Mn680   2.200       .  S
N656        N657   1.318       .  A
N656       Mn658   2.190       .  S
C659        C710   1.473       .  S
C660        C714   1.467       .  S
N661        N662   1.324       .  A
N661       Mn669   2.229       .  S
N663        N664   1.328       .  A
N663       Mn681   2.258       .  S
N665        N666   1.318       .  A
N665       Mn669   2.191       .  S
N666        C671   1.346       .  A
N667        N668   1.324       .  A
N667       Mn681   2.223       .  S
N668        C670   1.354       .  A
C670        C705   1.490       .  S
C671        C701   1.483       .  S
N672        N673   1.317       .  A
N672       Mn680   2.186       .  S
N674        N675   1.326       .  A
N674       Mn681   2.255       .  S
N675        C684   1.363   1_556  A
N676        N677   1.320       .  A
N676       Mn680   2.199       .  S
N678        N679   1.325       .  A
N678       Mn681   2.234       .  S
N679        C683   1.359   1_556  A
Mn681      Cl682   2.557       .  S
C683        C690   1.493       .  S
C684        C698   1.472       .  S
C685        C686   1.329   1_556  D
C685        H687   1.086       .  S
C689        C690   1.344   1_556  D
C689        H691   1.086       .  S
C693        C694   1.337   1_554  D
C694        H696   1.086       .  S
C697        C698   1.328   1_556  D
C697        H699   1.087       .  S
C701        C702   1.338   1_565  D
C701        H703   1.087       .  S
C705        H707   1.086       .  S
C706        H708   1.087       .  S
C709        C710   1.339       .  D
C709        H711   1.087       .  S
C713        H715   1.086       .  S
C714        H716   1.086       .  S
C717       C1450   1.334       .  D
C717        H719   1.086       .  S
C718       C1449   1.334   1_455  D
C718        H720   1.086       .  S
C721        C722   1.337       .  D
C721        H723   1.087       .  S
C722       H1456   1.086       .  S
H724       C1454   1.086       .  S
C725       C1458   1.343       .  D
C725       H1459   1.086       .  S
C726       C1457   1.346   1_455  D
C726       H1460   1.086       .  S
H727       C1457   1.086       .  S
H728       C1458   1.087       .  S
C729        C730   1.336   1_655  D
C729       H1463   1.087       .  S
C730        H732   1.087       .  S
H731       C1461   1.087       .  S
N733        N734   1.327       .  A
N733       N1105   1.317       .  A
N733       Mn762   2.262       .  S
N734       C1107   1.365       .  A
N735       N1103   1.319   1_545  A
N735        N736   1.328       .  A
N735       Mn751   2.236       .  S
N736       C1108   1.359   1_545  A
N737       N1101   1.319       .  A
N737        N738   1.322       .  A
N737       Mn762   2.220       .  S
N738        C742   1.353       .  A
N739       N1099   1.317   1_545  A
N739        N740   1.315       .  A
N739       Mn751   2.163       .  S
N740        C741   1.343       .  A
C741       N1100   1.360   1_545  A
C741        C892   1.468       .  S
C742       N1102   1.358       .  A
C742        C889   1.491       .  S
N743        N744   1.320       .  A
N743       Mn773   2.199       .  S
N744        C752   1.352       .  A
N745        N746   1.330       .  A
N745       Mn751   2.245       .  S
N746        C753   1.362       .  A
N747        N748   1.314       .  A
N747       Mn773   2.161       .  S
N749        N750   1.317       .  A
N749       Mn751   2.185       .  S
Mn751      Cl775   2.558       .  S
C752        C900   1.463       .  S
C753        C912   1.480       .  S
N754        N755   1.328       .  A
N754       Mn762   2.263       .  S
N756        N757   1.327       .  A
N756       Mn774   2.226       .  S
N758        N759   1.322       .  A
N758       Mn762   2.223       .  S
N759        C764   1.353       .  A
N760        N761   1.315       .  A
N760       Mn774   2.165       .  S
N761        C763   1.343       .  A
Mn762     Cl1141   2.547       .  S
C763        C904   1.470       .  S
C764        C909   1.493       .  S
N765        N766   1.319       .  A
N765       N1137   1.314   1_545  A
N765       Mn773   2.194       .  S
N766        C776   1.350       .  A
N767        N768   1.326       .  A
N767       N1135   1.315       .  A
N767       Mn774   2.225       .  S
N768        C777   1.358       .  A
N769       N1133   1.315   1_545  A
N769        N770   1.314       .  A
N769       Mn773   2.161       .  S
N770       C1143   1.342       .  A
N771       N1131   1.315       .  A
N771        N772   1.316       .  A
N771       Mn774   2.178       .  S
N772       C1142   1.350       .  A
Cl775     Mn1128   2.539   1_545  S
C776       N1138   1.350   1_545  A
C776        C896   1.459       .  S
C777       N1136   1.345       .  A
C777        C885   1.471       .  S
N778        N779   1.323       .  A
N778       Mn807   2.235       .  S
N780        N781   1.325       .  A
N780       Mn796   2.229       .  S
N782        N783   1.327       .  A
N782       Mn807   2.243       .  S
N783        C787   1.359       .  A
N784        N785   1.322       .  A
N784       Mn796   2.210       .  S
N785        C786   1.351       .  A
C786        C913   1.486       .  S
C787        C908   1.496       .  S
N788        N977   1.315       .  A
N788        N789   1.318       .  A
N788       Mn818   2.186       .  S
N789        C797   1.347       .  A
N790        N791   1.327       .  A
N790        N975   1.315   1_554  A
N790       Mn796   2.242       .  S
N791        C981   1.362   1_554  A
N792        N973   1.313       .  A
N792        N793   1.312       .  A
N792       Mn818   2.139       .  S
N793        C798   1.339       .  A
N794        N971   1.316   1_554  A
N794        N795   1.323       .  A
N794       Mn796   2.222       .  S
N795        C980   1.357   1_554  A
Mn796     Cl1003   2.552   1_554  S
C797        N978   1.359       .  A
C797        C877   1.475       .  S
C798        N974   1.364       .  A
C798        C880   1.469       .  S
N799        N800   1.326       .  A
N799        N988   1.316   1_554  A
N799       Mn807   2.247       .  S
N800        C991   1.364   1_554  A
N801        N986   1.317       .  A
N801        N802   1.319       .  A
N801       Mn819   2.191       .  S
N802        C992   1.346       .  A
N803        N984   1.318   1_554  A
N803        N804   1.326       .  A
N803       Mn807   2.241       .  S
N804        C809   1.359   1_554  A
N805        N982   1.318       .  A
N805        N806   1.321       .  A
N805       Mn819   2.199       .  S
N806        C808   1.352       .  A
C808        N983   1.356       .  A
C808        C868   1.479       .  S
C809        N985   1.350       .  A
C809       C1055   1.487       .  S
N810        N811   1.318       .  A
N810       Mn818   2.188       .  S
N811        C821   1.350       .  A
N812        N813   1.325       .  A
N812       Mn819   2.223       .  S
N813        C822   1.361   1_655  A
N814        N815   1.310       .  A
N814       Mn818   2.132       .  S
N816        N817   1.315       .  A
N816       Mn819   2.182       .  S
Mn818      Cl820   2.519       .  S
Cl820      Mn979   2.567       .  S
C821        C901   1.462       .  S
C822        C905   1.469       .  S
N823        N824   1.324       .  A
N823       N1012   1.316       .  A
N823       Mn852   2.216       .  S
N824        C831   1.356       .  A
N825       N1010   1.315   1_554  A
N825        N826   1.319       .  A
N825       Mn841   2.196       .  S
N826       C1015   1.349       .  A
N827       N1008   1.315       .  A
N827        N828   1.325       .  A
N827       Mn852   2.229       .  S
N828        C832   1.359       .  A
N829       N1006   1.313   1_554  A
N829        N830   1.311       .  A
N829       Mn841   2.138       .  S
N830       C1014   1.338       .  A
C831       N1013   1.351       .  A
C831        C869   1.478       .  S
C832       N1009   1.346       .  A
C832        C876   1.475       .  S
N833       N1205   1.312   1_545  A
N833        N834   1.326       .  A
N833       Mn863   2.231       .  S
N834        C842   1.362   1_545  A
N835        N836   1.319       .  A
N835       N1203   1.314       .  A
N835       Mn841   2.192       .  S
N836        C843   1.351       .  A
N837       N1201   1.312   1_545  A
N837        N838   1.315       .  A
N837       Mn863   2.174       .  S
N838       C1209   1.350   1_545  A
N839       N1199   1.314       .  A
N839        N840   1.311       .  A
N839       Mn841   2.134       .  S
N840       C1208   1.336       .  A
Mn841     Cl1414   2.525       .  S
C842       N1206   1.340       .  A
C842        C893   1.465       .  S
C843       N1204   1.350       .  A
C843        C897   1.462       .  S
N844        N845   1.325       .  A
N844       N1216   1.319       .  A
N844       Mn852   2.219       .  S
N845       C1219   1.356       .  A
N846       N1214   1.319   1_545  A
N846        N847   1.324       .  A
N846       Mn864   2.240       .  S
N847       C1220   1.360   1_545  A
N848       N1212   1.318       .  A
N848        N849   1.323       .  A
N848       Mn852   2.211       .  S
N849        C854   1.352       .  A
N850       N1210   1.320   1_545  A
N850        N851   1.325       .  A
N850       Mn864   2.243       .  S
N851        C853   1.357       .  A
Mn852     Cl1231   2.558       .  S
C853       N1211   1.356   1_545  A
C853        C888   1.497       .  S
C854       N1213   1.354       .  A
C854        C884   1.479       .  S
N855        N856   1.320       .  A
N855       N1044   1.317   1_554  A
N855       Mn863   2.208       .  S
N856       C1049   1.350       .  A
N857        N858   1.325       .  A
N857       N1042   1.316       .  A
N857       Mn864   2.240       .  S
N858        C867   1.362       .  A
N859       N1040   1.318   1_554  A
N859        N860   1.317       .  A
N859       Mn863   2.171       .  S
N860       C1050   1.345       .  A
N861       N1038   1.317       .  A
N861        N862   1.330       .  A
N861       Mn864   2.260       .  S
N862        C866   1.364       .  A
Mn863     Cl1048   2.549   1_545  S
Mn864      Cl865   2.558       .  S
Cl865     Mn1390   2.548   1_545  S
Cl865     Mn1218   2.550   1_545  S
Cl865     Mn1046   2.539       .  S
C866       N1039   1.344       .  A
C866        C873   1.485       .  S
C867       N1043   1.343       .  A
C867        C881   1.473       .  S
C868        C869   1.342       .  D
C868        H870   1.087       .  S
C869       H1054   1.087       .  S
H871       C1052   1.087       .  S
C872        C992   1.487       .  S
C872        C873   1.338       .  D
C872        H874   1.086       .  S
C873       H1058   1.087       .  S
H875       C1056   1.086       .  S
C876        C877   1.337       .  D
C876       H1061   1.087       .  S
C877        H879   1.086       .  S
H878       C1059   1.086       .  S
C880        C881   1.330       .  D
C880        H882   1.087       .  S
C881       H1066   1.086       .  S
H883       C1064   1.087       .  S
C884        C885   1.340       .  D
C884        H886   1.086       .  S
C885       H1253   1.087       .  S
H887       C1251   1.087       .  S
C888       C1255   1.351   1_545  D
C888        H890   1.086       .  S
C889       C1254   1.349       .  D
C889        H891   1.086       .  S
C892        C893   1.330   1_545  D
C892        H894   1.086       .  S
C893       H1261   1.087       .  S
H895       C1259   1.087       .  S
C896       C1263   1.339   1_545  D
C896        H898   1.086       .  S
C897       C1262   1.340       .  D
C897        H899   1.086       .  S
C900        H902   1.087       .  S
C901        H903   1.086       .  S
C904        C905   1.331   1_655  D
C904        H906   1.086       .  S
C912        C913   1.340       .  D
C913        H915   1.086       .  S
N916        N917   1.316       .  A
N916       N1288   1.315       .  A
N916       Mn945   2.184       .  S
N917       C1290   1.346       .  A
N918       N1286   1.316   1_545  A
N918        N919   1.328       .  A
N918       Mn934   2.236       .  S
N919       C1291   1.360   1_545  A
N920       N1284   1.315       .  A
N920        N921   1.317       .  A
N920       Mn945   2.182       .  S
N921        C925   1.346       .  A
N922       N1282   1.315   1_545  A
N922        N923   1.322       .  A
N922       Mn934   2.207       .  S
N923        C924   1.356   1_545  A
C924       N1283   1.346       .  A
C924       C1075   1.464       .  S
C925       N1285   1.362       .  A
C925       C1072   1.482       .  S
N926        N927   1.315       .  A
N926       Mn956   2.181       .  S
N927        C935   1.347       .  A
N928        N929   1.327       .  A
N928       Mn934   2.236       .  S
N929        C936   1.361       .  A
N930        N931   1.316       .  A
N930       Mn956   2.172       .  S
N932        N933   1.321       .  A
N932       Mn934   2.204       .  S
Mn934      Cl958   2.577       .  S
C935       C1083   1.464       .  S
C936       C1095   1.477       .  S
N937        N938   1.315       .  A
N937       Mn945   2.182       .  S
N939        N940   1.328       .  A
N939       Mn957   2.237       .  S
N941        N942   1.316       .  A
N941       Mn945   2.178       .  S
N942        C947   1.344       .  A
N943        N944   1.322       .  A
N943       Mn957   2.215       .  S
N944        C946   1.356   1_655  A
Mn945     Cl1324   2.510       .  S
C946       C1087   1.464       .  S
C947       C1092   1.481       .  S
N948        N949   1.316       .  A
N948       N1320   1.314   1_545  A
N948       Mn956   2.179       .  S
N949        C959   1.347       .  A
N950        N951   1.329       .  A
N950       N1318   1.315       .  A
N950       Mn957   2.244       .  S
N951        C960   1.363       .  A
N952       N1316   1.316   1_545  A
N952        N953   1.318       .  A
N952       Mn956   2.182       .  S
N953       C1326   1.346       .  A
N954       N1314   1.315       .  A
N954        N955   1.323       .  A
N954       Mn957   2.215       .  S
N955       C1325   1.357       .  A
Cl958     Mn1311   2.513   1_545  S
C959       N1321   1.353   1_545  A
C959       C1079   1.459       .  S
C960       N1319   1.345       .  A
C960       C1068   1.481       .  S
N961        N962   1.327       .  A
N961       Mn990   2.247       .  S
N963        N964   1.326       .  A
N963       Mn979   2.246       .  S
N965        N966   1.323       .  A
N965       Mn990   2.222       .  S
N966        C970   1.353       .  A
N967        N968   1.319       .  A
N967       Mn979   2.190       .  S
N968        C969   1.348       .  A
C969       C1096   1.479       .  S
C970       C1091   1.488       .  S
N971        N972   1.319       .  A
N971      Mn1001   2.186       .  S
N972        C980   1.349       .  A
N973        N974   1.328       .  A
N973       Mn979   2.249       .  S
N975        N976   1.316       .  A
N975      Mn1001   2.169       .  S
N976        C981   1.343       .  A
N977        N978   1.324       .  A
N977       Mn979   2.218       .  S
C980       C1060   1.475       .  S
C981       C1063   1.476       .  S
N982        N983   1.322       .  A
N982       Mn990   2.227       .  S
N984        N985   1.321       .  A
N984      Mn1002   2.199       .  S
N986        N987   1.328       .  A
N986       Mn990   2.246       .  S
N987        C992   1.363       .  A
N988        N989   1.315       .  A
N988      Mn1002   2.159       .  S
N989        C991   1.341       .  A
C991       C1051   1.475       .  S
N993        N994   1.319       .  A
N993      Mn1001   2.183       .  S
N994       C1004   1.349       .  A
N995        N996   1.318       .  A
N995      Mn1002   2.189       .  S
N996       C1005   1.348       .  A
N997        N998   1.317       .  A
N997      Mn1001   2.184       .  S
N999       N1000   1.316       .  A
N999      Mn1002   2.182       .  S
Mn1001    Cl1003   2.547       .  S
C1004      C1084   1.464       .  S
C1005      C1088   1.467       .  S
N1006      N1007   1.329       .  A
N1006     Mn1035   2.253       .  S
N1007      C1014   1.365   1_556  A
N1008      N1009   1.317       .  A
N1008     Mn1024   2.176       .  S
N1010      N1011   1.322       .  A
N1010     Mn1035   2.210       .  S
N1011      C1015   1.357   1_556  A
N1012      N1013   1.320       .  A
N1012     Mn1024   2.201       .  S
C1014      C1052   1.471       .  S
C1015      C1059   1.475       .  S
N1016      N1388   1.312   1_545  A
N1016      N1017   1.320       .  A
N1016     Mn1046   2.183       .  S
N1017      C1025   1.349       .  A
N1018      N1019   1.319       .  A
N1018      N1386   1.314       .  A
N1018     Mn1024   2.179       .  S
N1019      C1026   1.348       .  A
N1020      N1384   1.312   1_545  A
N1020      N1021   1.315       .  A
N1020     Mn1046   2.177       .  S
N1021      C1392   1.351   1_545  A
N1022      N1382   1.314       .  A
N1022      N1023   1.319       .  A
N1022     Mn1024   2.202       .  S
N1023      C1391   1.354       .  A
Mn1024    Cl1231   2.542       .  S
C1025      N1389   1.354   1_545  A
C1025      C1076   1.468       .  S
C1026      N1387   1.356       .  A
C1026      C1080   1.470       .  S
N1027      N1028   1.326       .  A
N1027      N1399   1.318       .  A
N1027     Mn1035   2.243       .  S
N1028      C1402   1.360       .  A
N1029      N1397   1.320   1_545  A
N1029      N1030   1.328       .  A
N1029     Mn1047   2.253       .  S
N1030      C1403   1.362   1_545  A
N1031      N1395   1.318       .  A
N1031      N1032   1.319       .  A
N1031     Mn1035   2.187       .  S
N1032      C1037   1.347       .  A
N1033      N1393   1.320   1_545  A
N1033      N1034   1.322       .  A
N1033     Mn1047   2.219       .  S
N1034      C1036   1.352       .  A
Mn1035    Cl1414   2.566   1_556  S
C1036      N1394   1.358   1_545  A
C1036      C1071   1.489       .  S
C1037      N1396   1.361       .  A
C1037      C1067   1.482       .  S
N1038      N1039   1.316       .  A
N1038     Mn1046   2.175       .  S
N1040      N1041   1.326       .  A
N1040     Mn1047   2.252       .  S
N1041      C1050   1.362   1_556  A
N1042      N1043   1.316       .  A
N1042     Mn1046   2.164       .  S
N1044      N1045   1.327       .  A
N1044     Mn1047   2.233       .  S
N1045      C1049   1.360   1_556  A
Mn1047    Cl1048   2.552   1_546  S
Cl1048    Mn1207   2.533       .  S
Cl1048    Mn1401   2.558   1_554  S
C1049      C1056   1.487       .  S
C1050      C1064   1.477       .  S
C1051      C1052   1.329   1_556  D
C1051      H1053   1.086       .  S
C1055      C1056   1.343   1_556  D
C1055      H1057   1.086       .  S
C1059      C1060   1.340   1_554  D
C1060      H1062   1.087       .  S
C1063      C1064   1.335   1_556  D
C1063      H1065   1.087       .  S
C1067      C1068   1.337       .  D
C1067      H1069   1.087       .  S
C1068      H1436   1.087       .  S
H1070      C1434   1.087       .  S
C1071      C1438   1.344   1_545  D
C1071      H1073   1.086       .  S
C1072      C1437   1.339       .  D
C1072      H1074   1.087       .  S
C1075      C1076   1.337   1_565  D
C1075      H1077   1.087       .  S
C1076      H1444   1.086       .  S
H1078      C1442   1.086       .  S
C1079      C1446   1.337   1_545  D
C1079      H1081   1.086       .  S
C1080      C1445   1.336       .  D
C1080      H1082   1.086       .  S
C1083      H1085   1.087       .  S
C1084      H1086   1.086       .  S
C1087      C1088   1.335   1_455  D
C1087      H1089   1.086       .  S
C1095      C1096   1.337       .  D
C1096      H1098   1.087       .  S
N1099      N1100   1.323       .  A
N1099     Mn1128   2.235       .  S
N1101      N1102   1.327       .  A
N1101     Mn1117   2.236       .  S
N1103      N1104   1.323       .  A
N1103     Mn1128   2.227       .  S
N1104      C1108   1.354       .  A
N1105      N1106   1.315       .  A
N1105     Mn1117   2.153       .  S
N1106      C1107   1.340       .  A
C1107      C1258   1.477       .  S
C1108      C1255   1.495       .  S
N1109      N1110   1.319       .  A
N1109     Mn1139   2.201       .  S
N1110      C1118   1.352       .  A
N1111      N1112   1.328       .  A
N1111     Mn1117   2.240       .  S
N1112      C1119   1.360       .  A
N1113      N1114   1.316       .  A
N1113     Mn1139   2.180       .  S
N1115      N1116   1.317       .  A
N1115     Mn1117   2.172       .  S
Mn1117    Cl1141   2.554       .  S
C1118      C1266   1.465       .  S
C1119      C1278   1.478       .  S
N1120      N1121   1.323       .  A
N1120     Mn1128   2.235       .  S
N1122      N1123   1.328       .  A
N1122     Mn1140   2.249       .  S
N1124      N1125   1.324       .  A
N1124     Mn1128   2.232       .  S
N1125      C1130   1.356       .  A
N1126      N1127   1.315       .  A
N1126     Mn1140   2.159       .  S
N1127      C1129   1.343       .  A
C1129      C1270   1.465       .  S
C1130      C1275   1.493       .  S
N1131      N1132   1.319       .  A
N1131     Mn1139   2.196       .  S
N1132      C1142   1.351       .  A
N1133      N1134   1.331       .  A
N1133     Mn1140   2.256       .  S
N1134      C1143   1.364   1_565  A
N1135      N1136   1.315       .  A
N1135     Mn1139   2.173       .  S
N1137      N1138   1.316       .  A
N1137     Mn1140   2.171       .  S
C1142      C1262   1.461       .  S
C1143      C1251   1.478       .  S
N1144      N1145   1.322       .  A
N1144     Mn1173   2.228       .  S
N1146      N1147   1.325       .  A
N1146     Mn1162   2.221       .  S
N1148      N1149   1.320       .  A
N1148     Mn1173   2.199       .  S
N1149      C1153   1.349       .  A
N1150      N1151   1.323       .  A
N1150     Mn1162   2.217       .  S
N1151      C1152   1.353       .  A
C1152      C1279   1.484       .  S
C1153      C1274   1.487       .  S
N1154      N1343   1.315       .  A
N1154      N1155   1.316       .  A
N1154     Mn1184   2.184       .  S
N1155      C1163   1.345       .  A
N1156      N1157   1.326       .  A
N1156      N1341   1.315   1_554  A
N1156     Mn1162   2.234       .  S
N1157      C1347   1.361   1_554  A
N1158      N1339   1.314       .  A
N1158      N1159   1.319       .  A
N1158     Mn1184   2.189       .  S
N1159      C1164   1.353       .  A
N1160      N1337   1.316   1_554  A
N1160      N1161   1.324       .  A
N1160     Mn1162   2.231       .  S
N1161      C1346   1.359   1_554  A
Mn1162    Cl1369   2.554   1_554  S
C1163      N1344   1.358       .  A
C1163      C1243   1.470       .  S
C1164      N1340   1.351       .  A
C1164      C1246   1.473       .  S
N1165      N1166   1.324       .  A
N1165      N1354   1.316   1_554  A
N1165     Mn1173   2.237       .  S
N1166      C1357   1.361   1_554  A
N1167      N1352   1.317       .  A
N1167      N1168   1.319       .  A
N1167     Mn1185   2.190       .  S
N1168      C1358   1.346       .  A
N1169      N1350   1.317   1_554  A
N1169      N1170   1.321       .  A
N1169     Mn1173   2.203       .  S
N1170      C1175   1.350       .  A
N1171      N1348   1.318       .  A
N1171      N1172   1.322       .  A
N1171     Mn1185   2.199       .  S
N1172      C1174   1.351       .  A
C1174      N1349   1.357       .  A
C1174      C1234   1.481       .  S
C1175      N1351   1.360   1_554  A
C1175      C1421   1.488       .  S
N1176      N1177   1.323       .  A
N1176     Mn1184   2.209       .  S
N1177      C1187   1.356       .  A
N1178      N1179   1.323       .  A
N1178     Mn1185   2.215       .  S
N1179      C1188   1.359   1_655  A
N1180      N1181   1.315       .  A
N1180     Mn1184   2.164       .  S
N1182      N1183   1.315       .  A
N1182     Mn1185   2.185       .  S
Mn1184    Cl1186   2.546       .  S
Cl1186    Mn1345   2.546       .  S
C1187      C1267   1.470       .  S
C1188      C1271   1.465       .  S
N1189      N1190   1.327       .  A
N1189      N1378   1.316       .  A
N1189     Mn1218   2.233       .  S
N1190      C1197   1.359       .  A
N1191      N1376   1.315   1_554  A
N1191      N1192   1.315       .  A
N1191     Mn1207   2.174       .  S
N1192      C1381   1.344       .  A
N1193      N1374   1.315       .  A
N1193      N1194   1.322       .  A
N1193     Mn1218   2.221       .  S
N1194      C1198   1.358       .  A
N1195      N1372   1.313   1_554  A
N1195      N1196   1.313       .  A
N1195     Mn1207   2.143       .  S
N1196      C1380   1.340       .  A
C1197      N1379   1.347       .  A
C1197      C1235   1.477       .  S
C1198      N1375   1.347       .  A
C1198      C1242   1.472       .  S
N1199      N1200   1.331       .  A
N1199     Mn1229   2.263       .  S
N1200      C1208   1.367       .  A
N1201      N1202   1.319       .  A
N1201     Mn1207   2.183       .  S
N1202      C1209   1.350       .  A
N1203      N1204   1.316       .  A
N1203     Mn1229   2.177       .  S
N1205      N1206   1.312       .  A
N1205     Mn1207   2.144       .  S
C1208      C1259   1.473       .  S
C1209      C1263   1.460       .  S
N1210      N1211   1.326       .  A
N1210     Mn1218   2.227       .  S
N1212      N1213   1.319       .  A
N1212     Mn1230   2.207       .  S
N1214      N1215   1.321       .  A
N1214     Mn1218   2.199       .  S
N1215      C1220   1.348       .  A
N1216      N1217   1.324       .  A
N1216     Mn1230   2.238       .  S
N1217      C1219   1.356       .  A
C1219      C1254   1.493       .  S
C1220      C1250   1.484       .  S
N1221      N1222   1.329       .  A
N1221      N1410   1.317   1_554  A
N1221     Mn1229   2.249       .  S
N1222      C1415   1.362   1_554  A
N1223      N1224   1.318       .  A
N1223      N1408   1.316       .  A
N1223     Mn1230   2.192       .  S
N1224      C1233   1.349       .  A
N1225      N1406   1.318   1_554  A
N1225      N1226   1.318       .  A
N1225     Mn1229   2.177       .  S
N1226      C1416   1.347       .  A
N1227      N1404   1.317       .  A
N1227      N1228   1.331       .  A
N1227     Mn1230   2.257       .  S
N1228      C1232   1.364       .  A
Mn1229    Cl1414   2.565       .  S
Mn1230    Cl1231   2.550       .  S
Cl1231    Mn1412   2.547       .  S
C1232      N1405   1.344       .  A
C1232      C1239   1.486       .  S
C1233      N1409   1.355       .  A
C1233      C1247   1.470       .  S
C1234      C1235   1.340       .  D
C1234      H1236   1.086       .  S
C1235      H1420   1.087       .  S
H1237      C1418   1.087       .  S
C1238      C1358   1.487       .  S
C1238      C1239   1.338       .  D
C1238      H1240   1.086       .  S
C1239      H1424   1.087       .  S
H1241      C1422   1.087       .  S
C1242      C1243   1.336       .  D
C1242      H1427   1.087       .  S
C1243      H1245   1.087       .  S
H1244      C1425   1.087       .  S
C1246      C1247   1.340       .  D
C1246      H1248   1.086       .  S
C1247      H1432   1.087       .  S
H1249      C1430   1.086       .  S
C1250      C1251   1.337   1_565  D
C1250      H1252   1.086       .  S
C1254      H1256   1.086       .  S
C1255      H1257   1.086       .  S
C1258      C1259   1.328       .  D
C1258      H1260   1.086       .  S
C1262      H1264   1.086       .  S
C1263      H1265   1.086       .  S
C1266      H1268   1.087       .  S
C1267      H1269   1.087       .  S
C1270      C1271   1.331   1_655  D
C1270      H1272   1.086       .  S
C1278      C1279   1.342       .  D
C1279      H1281   1.087       .  S
N1282      N1283   1.316       .  A
N1282     Mn1311   2.181       .  S
N1284      N1285   1.328       .  A
N1284     Mn1300   2.241       .  S
N1286      N1287   1.320       .  A
N1286     Mn1311   2.200       .  S
N1287      C1291   1.350       .  A
N1288      N1289   1.324       .  A
N1288     Mn1300   2.211       .  S
N1289      C1290   1.357       .  A
C1290      C1441   1.467       .  S
C1291      C1438   1.487       .  S
N1292      N1293   1.315       .  A
N1292     Mn1322   2.173       .  S
N1293      C1301   1.345       .  A
N1294      N1295   1.326       .  A
N1294     Mn1300   2.239       .  S
N1295      C1302   1.362       .  A
N1296      N1297   1.317       .  A
N1296     Mn1322   2.175       .  S
N1298      N1299   1.321       .  A
N1298     Mn1300   2.202       .  S
Mn1300    Cl1324   2.576       .  S
C1301      C1449   1.462       .  S
C1302      C1461   1.471       .  S
N1303      N1304   1.315       .  A
N1303     Mn1311   2.180       .  S
N1305      N1306   1.329       .  A
N1305     Mn1323   2.239       .  S
N1307      N1308   1.317       .  A
N1307     Mn1311   2.193       .  S
N1308      C1313   1.347       .  A
N1309      N1310   1.322       .  A
N1309     Mn1323   2.196       .  S
N1310      C1312   1.353   1_655  A
C1312      C1453   1.470       .  S
C1313      C1458   1.483       .  S
N1314      N1315   1.316       .  A
N1314     Mn1322   2.177       .  S
N1315      C1325   1.346       .  A
N1316      N1317   1.329       .  A
N1316     Mn1323   2.251       .  S
N1317      C1326   1.363   1_565  A
N1318      N1319   1.316       .  A
N1318     Mn1322   2.174       .  S
N1320      N1321   1.319       .  A
N1320     Mn1323   2.191       .  S
C1325      C1445   1.467       .  S
C1326      C1434   1.486       .  S
N1327      N1328   1.327       .  A
N1327     Mn1356   2.243       .  S
N1329      N1330   1.323       .  A
N1329     Mn1345   2.219       .  S
N1331      N1332   1.325       .  A
N1331     Mn1356   2.230       .  S
N1332      C1336   1.355       .  A
N1333      N1334   1.315       .  A
N1333     Mn1345   2.174       .  S
N1334      C1335   1.343       .  A
C1335      C1462   1.472       .  S
C1336      C1457   1.490       .  S
N1337      N1338   1.318       .  A
N1337     Mn1367   2.177       .  S
N1338      C1346   1.346       .  A
N1339      N1340   1.321       .  A
N1339     Mn1345   2.207       .  S
N1341      N1342   1.316       .  A
N1341     Mn1367   2.173       .  S
N1342      C1347   1.345       .  A
N1343      N1344   1.324       .  A
N1343     Mn1345   2.213       .  S
C1346      C1426   1.476       .  S
C1347      C1429   1.475       .  S
N1348      N1349   1.322       .  A
N1348     Mn1356   2.229       .  S
N1350      N1351   1.326       .  A
N1350     Mn1368   2.235       .  S
N1352      N1353   1.329       .  A
N1352     Mn1356   2.249       .  S
N1353      C1358   1.363       .  A
N1354      N1355   1.316       .  A
N1354     Mn1368   2.162       .  S
N1355      C1357   1.343       .  A
C1357      C1417   1.472       .  S
N1359      N1360   1.318       .  A
N1359     Mn1367   2.175       .  S
N1360      C1370   1.347       .  A
N1361      N1362   1.325       .  A
N1361     Mn1368   2.225       .  S
N1362      C1371   1.356       .  A
N1363      N1364   1.317       .  A
N1363     Mn1367   2.186       .  S
N1365      N1366   1.318       .  A
N1365     Mn1368   2.194       .  S
Mn1367    Cl1369   2.542       .  S
C1370      C1450   1.462       .  S
C1371      C1454   1.476       .  S
N1372      N1373   1.327       .  A
N1372     Mn1401   2.243       .  S
N1373      C1380   1.363   1_556  A
N1374      N1375   1.318       .  A
N1374     Mn1390   2.175       .  S
N1376      N1377   1.326       .  A
N1376     Mn1401   2.229       .  S
N1377      C1381   1.361   1_556  A
N1378      N1379   1.317       .  A
N1378     Mn1390   2.183       .  S
C1380      C1418   1.468       .  S
C1381      C1425   1.473       .  S
N1382      N1383   1.321       .  A
N1382     Mn1412   2.185       .  S
N1383      C1391   1.350       .  A
N1384      N1385   1.320       .  A
N1384     Mn1390   2.184       .  S
N1385      C1392   1.350       .  A
N1386      N1387   1.320       .  A
N1386     Mn1412   2.211       .  S
N1388      N1389   1.318       .  A
N1388     Mn1390   2.191       .  S
C1391      C1442   1.473       .  S
C1392      C1446   1.463       .  S
N1393      N1394   1.326       .  A
N1393     Mn1401   2.236       .  S
N1395      N1396   1.326       .  A
N1395     Mn1413   2.246       .  S
N1397      N1398   1.319       .  A
N1397     Mn1401   2.198       .  S
N1398      C1403   1.347       .  A
N1399      N1400   1.320       .  A
N1399     Mn1413   2.193       .  S
N1400      C1402   1.348       .  A
C1402      C1437   1.484       .  S
C1403      C1433   1.486       .  S
N1404      N1405   1.317       .  A
N1404     Mn1412   2.180       .  S
N1406      N1407   1.325       .  A
N1406     Mn1413   2.245       .  S
N1407      C1416   1.360   1_556  A
N1408      N1409   1.322       .  A
N1408     Mn1412   2.209       .  S
N1410      N1411   1.318       .  A
N1410     Mn1413   2.192       .  S
N1411      C1415   1.348       .  A
Mn1413    Cl1414   2.534   1_556  S
C1415      C1422   1.486       .  S
C1416      C1430   1.477       .  S
C1417      C1418   1.330   1_556  D
C1417      H1419   1.086       .  S
C1421      C1422   1.342   1_554  D
C1421      H1423   1.086       .  S
C1425      C1426   1.336   1_554  D
C1426      H1428   1.086       .  S
C1429      C1430   1.336   1_556  D
C1429      H1431   1.087       .  S
C1433      C1434   1.339   1_565  D
C1433      H1435   1.087       .  S
C1437      H1439   1.087       .  S
C1438      H1440   1.086       .  S
C1441      C1442   1.338       .  D
C1441      H1443   1.087       .  S
C1445      H1447   1.086       .  S
C1446      H1448   1.086       .  S
C1449      H1451   1.086       .  S
C1450      H1452   1.086       .  S
C1453      C1454   1.345   1_455  D
C1453      H1455   1.087       .  S
C1461      C1462   1.332       .  D
C1462      H1464   1.086       .  S
