geometry optimzed in LAMMPS
_audit_creation_date              2020-11-30 
_audit_creation_method            'lammps2cif' 
_symmetry_space_group_name_H-M    'P1' 
_symmetry_Int_Tables_number       1 
_symmetry_cell_setting            triclinic 
loop_ 
_symmetry_equiv_pos_as_xyz 
  x,y,z 
_cell_length_a                    30.12073658 
_cell_length_b                    26.761768549133944 
_cell_length_c                    26.6025022397246 
_cell_angle_alpha                 89.72132655244513 
_cell_angle_beta                  91.77431419835884 
_cell_angle_gamma                 90.0216986578093 
loop_ 
_atom_site_label 
_atom_site_type_symbol 
_atom_site_fract_x 
_atom_site_fract_y 
_atom_site_fract_z 
_atom_site_charge 
Zr1        Zr  0.13845304  0.31925765  0.92319554     2.17500
O2          O  0.11074559  0.39940378  0.89154086    -0.51600
O3          O  0.18752818  0.30417474  0.85378165    -0.74800
O4          O  0.18946828  0.38800150  0.94806221    -0.81600
O5          O  0.03829462  0.25141820  0.86382573    -0.83300
O6          O  0.22539091  0.36904051  0.02220684    -0.78900
O7          O  0.08530818  0.31662411  0.85097235    -0.90600
O8          O  0.21623292  0.22615440  0.86305608    -0.76500
O9          O  0.20123652  0.27828739  0.96136652    -0.86000
O10         O  0.13141778  0.23271997  0.90392077    -0.85700
O11         O  0.13295090  0.33418997  0.01197486    -0.72500
O12         O  0.06925697  0.29198531  0.95728625    -0.84600
Zr13       Zr  0.12192670  0.17722419  0.06571941     2.26400
Zr14       Zr  0.19530714  0.29100970  0.04984268     2.06300
Zr15       Zr  0.06369288  0.20510668  0.93849715     2.10000
Zr16       Zr  0.19365214  0.19191205  0.94225030     1.78800
O17         O  0.47954934  0.20910079  0.94135598    -0.93400
O18         O  0.27418143  0.19722758  0.95301448    -0.41200
O19         O  0.12606865  0.16257159  0.97693579    -0.77900
O20         O  0.19071603  0.20392499  0.03102332    -0.96600
O21         O  0.12772782  0.26368600  0.08523419    -0.89900
O22         O  0.05870013  0.21775536  0.02695562    -0.92700
C23         C  0.21017888  0.26686479  0.83833535     1.01100
C24         C  0.05178657  0.28895442  0.83808620     1.14000
C25         C  0.21713499  0.39806666  0.98482732     1.04800
O26         O  0.27592249  0.28582374  0.05058992    -0.94900
O27         O  0.22215792  0.24720285  0.12386327    -0.90600
O28         O  0.17654509  0.18084888  0.13660944    -0.83700
C29         C  0.21006178  0.20884003  0.14884912     1.11400
O30         O  0.02919250  0.38049030  0.01555978    -0.96800
Zr31       Zr  0.06531584  0.30411371  0.04624056     1.88900
O32         O  0.07206739  0.19009630  0.13436807    -0.73500
O33         O  0.19138921  0.34840735  0.12046498    -0.52700
O34         O  0.08104325  0.37229784  0.10444513    -0.97400
O35         O  0.48008171  0.29357965  0.04837138    -0.54600
O36         O  0.04696756  0.27019376  0.12783961    -0.74000
C37         C  0.05124367  0.22812092  0.15088065     0.98400
O38         O  0.15233989  0.09773911  0.09583696    -0.62800
O39         O  0.06017479  0.14735747  0.86782635    -0.57600
O40         O  0.07319863  0.10639583  0.04461665    -0.94300
O41         O  0.04287348  0.12264415  0.96703956    -0.92700
O42         O  0.17679301  0.12770322  0.88008093    -0.93100
O43         O  0.22730603  0.11108313  0.96140709    -0.91900
C44         C  0.04907262  0.09433616  0.00575123     1.17200
H45         H  0.13026651  0.22724122  0.86781619     0.33100
H46         H  0.21526645  0.18603422  0.04679413     0.44000
H47         H  0.03140532  0.20395969  0.03912535     0.37500
H48         H  0.13486319  0.36945816  0.01878402     0.34000
H49         H  0.28583130  0.18109346  0.92270497     0.25800
H50         H  0.22235500  0.35979442  0.12665088     0.31700
H51         H  0.05313259  0.37708870  0.12252536     0.37600
H52         H  0.14751501  0.11430724  0.88937424     0.32100
H53         H  0.02836584  0.14617782  0.85733933     0.31000
H54         H  0.46948109  0.18301623  0.91731840     0.32700
H55         H  0.47493618  0.26561589  0.07198179     0.31600
H56         H  0.20783658  0.09596226  0.98665853     0.35600
H57         H  0.12928361  0.08303494  0.11711105     0.28300
H58         H  0.13512602  0.41354719  0.87177887     0.32600
H59         H  0.01023257  0.39200469  0.04295863     0.35400
H60         H  0.07477171  0.16481560  0.83990111     0.28000
H61         H  0.15318817  0.07599133  0.06587110     0.40900
H62         H  0.28234769  0.24979645  0.04672120     0.31000
H63         H  0.28120509  0.23309685  0.94861547     0.38600
H64         H  0.47201402  0.28001761  0.01476780     0.30400
H65         H  0.17560202  0.37820288  0.10684836     0.30500
H66         H  0.10914059  0.42107151  0.92150123     0.30800
Zr67       Zr  0.38010229  0.82118165  0.93366524     2.17500
O68         O  0.35188843  0.90126053  0.90280445    -0.51600
O69         O  0.43072303  0.80982741  0.86523816    -0.74800
O70         O  0.43153062  0.88983327  0.95383283    -0.81600
O71         O  0.27348894  0.75954351  0.88017584    -0.83300
O72         O  0.46823784  0.86860409  0.02660440    -0.78900
O73         O  0.32404154  0.82052045  0.86499875    -0.90600
O74         O  0.45911781  0.73188068  0.87548128    -0.76500
O75         O  0.44244659  0.77671134  0.96896307    -0.86000
O76         O  0.36887321  0.73529259  0.91340062    -0.85700
O77         O  0.37851852  0.83568981  0.02274882    -0.72500
O78         O  0.31110250  0.79797466  0.97026347    -0.84600
Zr79       Zr  0.36176432  0.67863841  0.07546868     2.26400
Zr80       Zr  0.44030613  0.78946850  0.05763694     2.06300
Zr81       Zr  0.30116788  0.71162762  0.95154099     2.10000
Zr82       Zr  0.43050142  0.69120840  0.94933404     1.78800
O83         O  0.22223386  0.72224885  0.96531440    -0.93400
O84         O  0.01227828  0.68926817  0.97190744    -0.41200
O85         O  0.36292202  0.66529448  0.98637110    -0.77900
O86         O  0.43083861  0.70251465  0.03858048    -0.96600
O87         O  0.37265618  0.76469857  0.09536706    -0.89900
O88         O  0.29937290  0.72316995  0.04025451    -0.92700
C89         C  0.45560394  0.77372022  0.85178751     1.01100
C90         C  0.28825553  0.79590352  0.85411321     1.14000
C91         C  0.45987160  0.89888433  0.98984945     1.04800
O92         O  0.01860033  0.78477222  0.05524067    -0.94900
O93         O  0.46706847  0.74422635  0.13143592    -0.90600
O94         O  0.41784721  0.68134074  0.14487425    -0.83700
C95         C  0.45262353  0.70734018  0.15711640     1.11400
O96         O  0.28352335  0.89298888  0.04114643    -0.96800
Zr97       Zr  0.31105441  0.80891036  0.05938095     1.88900
O98         O  0.30924282  0.68904201  0.14277461    -0.73500
O99         O  0.44232022  0.84645903  0.12884061    -0.52700
O100        O  0.33189207  0.86782284  0.12562646    -0.97400
O101        O  0.23037478  0.81356042  0.05011243    -0.54600
O102        O  0.28539299  0.76914692  0.13455968    -0.74000
C103        C  0.28754783  0.72711059  0.15787789     0.98400
O104        O  0.38601906  0.59995835  0.11398104    -0.62800
O105        O  0.28798584  0.65469377  0.88139998    -0.57600
O106        O  0.31685873  0.60704054  0.04514773    -0.94300
O107        O  0.27763082  0.62918811  0.97420789    -0.92700
O108        O  0.41063407  0.63393288  0.88145447    -0.93100
O109        O  0.45525091  0.60568377  0.96477700    -0.91900
C110        C  0.28876743  0.59782484  0.00867467     1.17200
H111        H  0.36686179  0.73039074  0.87726845     0.33100
H112        H  0.45490198  0.68327397  0.05329525     0.44000
H113        H  0.27173458  0.71073276  0.05294500     0.37500
H114        H  0.38178022  0.87109338  0.02990410     0.34000
H115        H  0.02431499  0.67134146  0.94284269     0.25800
H116        H  0.47409542  0.85522291  0.13382081     0.31700
H117        H  0.34430107  0.84695776  0.15350112     0.37600
H118        H  0.38327839  0.61717085  0.89254284     0.32100
H119        H  0.25715219  0.66156783  0.86933454     0.31000
H120        H  0.20750040  0.69704697  0.94337523     0.32700
H121        H  0.21924070  0.78173216  0.06404821     0.31600
H122        H  0.44139353  0.59600458  0.99666399     0.35600
H123        H  0.35924081  0.58543500  0.12905921     0.28300
H124        H  0.37447203  0.91344766  0.87944911     0.32600
H125        H  0.26483322  0.90200267  0.06971324     0.35400
H126        H  0.30683175  0.66724372  0.85423362     0.28000
H127        H  0.39277642  0.57766468  0.08561718     0.40900
H128        H  0.02458601  0.74889253  0.06161184     0.31000
H129        H  0.02257537  0.72412274  0.96764888     0.38600
H130        H  0.22411879  0.81116665  0.01345563     0.30400
H131        H  0.42812154  0.87756499  0.11606164     0.30500
H132        H  0.35372107  0.92414790  0.93193408     0.30800
Zr133      Zr  0.36713947  0.32641706  0.56401487     2.17500
O134        O  0.39320171  0.40716028  0.59517222    -0.51600
O135        O  0.31435555  0.31465295  0.63079165    -0.74800
O136        O  0.31673835  0.39399034  0.53703322    -0.81600
O137        O  0.46521123  0.25953894  0.62896615    -0.83300
O138        O  0.28764022  0.37830425  0.45907781    -0.78900
O139        O  0.41748752  0.32469025  0.63802532    -0.90600
O140        O  0.28429705  0.23814109  0.61661572    -0.76500
O141        O  0.30632451  0.28483947  0.52278348    -0.86000
O142        O  0.37369153  0.24010760  0.58526073    -0.85700
O143        O  0.37678659  0.34102643  0.47571821    -0.72500
O144        O  0.43799096  0.29997680  0.53411283    -0.84600
Zr145      Zr  0.39141018  0.18403618  0.42499993     2.26400
Zr146      Zr  0.31603059  0.29778633  0.43486553     2.06300
Zr147      Zr  0.44323899  0.21303669  0.55452576     2.10000
Zr148      Zr  0.31371249  0.19873792  0.54336584     1.78800
O149        O  0.02400299  0.22722691  0.53637358    -0.93400
O150        O  0.23379062  0.19841517  0.52625987    -0.41200
O151        O  0.38302757  0.16992347  0.51328248    -0.77900
O152        O  0.32068387  0.21052576  0.45501510    -0.96600
O153        O  0.38547037  0.27039468  0.40363380    -0.89900
O154        O  0.45252439  0.22531442  0.46651002    -0.92700
C155        C  0.28906450  0.27811892  0.64264782     1.01100
C156        C  0.45055026  0.29731440  0.65282154     1.14000
C157        C  0.29253691  0.40598306  0.49796670     1.04800
O158        O  0.23520098  0.29763645  0.43227037    -0.94900
O159        O  0.28967712  0.25015708  0.36304704    -0.90600
O160        O  0.34025663  0.18845154  0.35114419    -0.83700
C161        C  0.30501086  0.21335092  0.33837823     1.11400
O162        O  0.47480539  0.39521242  0.46156764    -0.96800
Zr163      Zr  0.44603732  0.31137346  0.44529576     1.88900
O164        O  0.44481163  0.19619314  0.35951834    -0.73500
O165        O  0.32200694  0.35215500  0.36173213    -0.52700
O166        O  0.43102833  0.37120594  0.37754302    -0.97400
O167        O  0.01678771  0.31839605  0.44706132    -0.54600
O168        O  0.47700402  0.27199026  0.37176008    -0.74000
C169        C  0.47138053  0.23124489  0.34688839     0.98400
O170        O  0.36770208  0.10057987  0.39820028    -0.62800
O171        O  0.44127292  0.15483168  0.62534607    -0.57600
O172        O  0.43947836  0.11384898  0.45106744    -0.94300
O173        O  0.46755097  0.13106987  0.52931193    -0.92700
O174        O  0.33005730  0.13618677  0.60815470    -0.93100
O175        O  0.28254025  0.11653282  0.52525499    -0.91900
C176        C  0.46236451  0.10223305  0.49114925     1.17200
H177        H  0.37275548  0.23511727  0.62105710     0.33100
H178        H  0.29691299  0.19206744  0.43842099     0.44000
H179        H  0.48062299  0.21171122  0.45647266     0.37500
H180        H  0.37517550  0.37641039  0.46841435     0.34000
H181        H  0.22098281  0.18389494  0.55690720     0.25800
H182        H  0.29088131  0.36014563  0.35169902     0.31700
H183        H  0.42505069  0.35065025  0.34723896     0.37600
H184        H  0.30664244  0.14045418  0.63307848     0.32100
H185        H  0.47105725  0.15727383  0.64197715     0.31000
H186        H  0.02903891  0.26203920  0.54763264     0.32700
H187        H  0.02633503  0.32979066  0.41360747     0.31600
H188        H  0.28938436  0.11034929  0.48965540     0.35600
H189        H  0.36283708  0.08189387  0.42978975     0.28300
H190        H  0.36828962  0.42092237  0.61421252     0.32600
H191        H  0.49750391  0.40121831  0.43605960     0.35400
H192        H  0.42098731  0.16993315  0.64956986     0.28000
H193        H  0.33741997  0.10394023  0.38309158     0.40900
H194        H  0.22691218  0.26196677  0.43514352     0.31000
H195        H  0.22506254  0.23405832  0.52698523     0.38600
H196        H  0.02833590  0.28387472  0.45013408     0.30400
H197        H  0.33436423  0.38390327  0.37503727     0.30500
H198        H  0.39506363  0.42881331  0.56501565     0.30800
Zr199      Zr  0.11253868  0.82433333  0.57604952     2.17500
O200        O  0.14257565  0.90502416  0.60208654    -0.51600
O201        O  0.06301418  0.81492628  0.64579839    -0.74800
O202        O  0.06097321  0.89234207  0.55379340    -0.81600
O203        O  0.21611224  0.75995965  0.63453138    -0.83300
O204        O  0.02668682  0.87124036  0.47950967    -0.78900
O205        O  0.16592049  0.82192796  0.64734013    -0.90600
O206        O  0.03735367  0.73550924  0.63788547    -0.76500
O207        O  0.05008268  0.78098842  0.53999524    -0.86000
O208        O  0.12196839  0.73831327  0.59761264    -0.85700
O209        O  0.11557324  0.83772322  0.48672723    -0.72500
O210        O  0.18209184  0.79906541  0.54213741    -0.84600
Zr211      Zr  0.13142639  0.68140289  0.43642575     2.26400
Zr212      Zr  0.05386507  0.79182628  0.45116281     2.06300
Zr213      Zr  0.18997681  0.71240559  0.56226186     2.10000
Zr214      Zr  0.06015880  0.69557730  0.56118584     1.78800
O215        O  0.27002529  0.72099434  0.55529184    -0.93400
O216        O  0.47761477  0.70436459  0.55857082    -0.41200
O217        O  0.12806376  0.66813198  0.52567764    -0.77900
O218        O  0.06213008  0.70547397  0.47182003    -0.96600
O219        O  0.12222549  0.76732618  0.41590236    -0.89900
O220        O  0.19356371  0.72445324  0.47352864    -0.92700
C221        C  0.04132423  0.77709157  0.66163110     1.01100
C222        C  0.20088516  0.79647247  0.65983306     1.14000
C223        C  0.03429382  0.90139890  0.51610207     1.04800
O224        O  0.47118311  0.77965425  0.46349456    -0.94900
O225        O  0.02828921  0.74588499  0.37761164    -0.90600
O226        O  0.07818369  0.68382271  0.36416552    -0.83700
C227        C  0.04304795  0.70932491  0.35202576     1.11400
O228        O  0.21209173  0.89306298  0.47516391    -0.96800
Zr229      Zr  0.18386321  0.81040928  0.45305210     1.88900
O230        O  0.17999043  0.69729237  0.36588679    -0.73500
O231        O  0.04906988  0.84733049  0.37830009    -0.52700
O232        O  0.16686278  0.87219848  0.38774692    -0.97400
O233        O  0.26478492  0.80994744  0.46118660    -0.54600
O234        O  0.20740292  0.77571490  0.37519834    -0.74000
C235        C  0.20267276  0.73501376  0.35068804     0.98400
O236        O  0.10321422  0.59866742  0.41340857    -0.62800
O237        O  0.19518540  0.65520982  0.63380336    -0.57600
O238        O  0.18371760  0.61448403  0.46071498    -0.94300
O239        O  0.21433108  0.63032661  0.53805228    -0.92700
O240        O  0.07756455  0.63322770  0.62575474    -0.93100
O241        O  0.02805887  0.61351214  0.54455663    -0.91900
C242        C  0.20847959  0.60249042  0.49942326     1.17200
H243        H  0.12339490  0.73344471  0.63412324     0.33100
H244        H  0.03801521  0.68628791  0.45668657     0.44000
H245        H  0.22126225  0.71144110  0.46111626     0.37500
H246        H  0.11276839  0.87299209  0.47881781     0.34000
H247        H  0.46657984  0.68390585  0.58667846     0.25800
H248        H  0.01760451  0.85802924  0.37597301     0.31700
H249        H  0.14685249  0.85472247  0.36339759     0.37600
H250        H  0.10762592  0.62117800  0.61792208     0.32100
H251        H  0.22664366  0.65700788  0.64559979     0.31000
H252        H  0.28254904  0.68997009  0.57036375     0.32700
H253        H  0.27418158  0.77631860  0.45042834     0.31600
H254        H  0.04395601  0.60109109  0.51508153     0.35600
H255        H  0.10810825  0.57760976  0.44378042     0.28300
H256        H  0.11943881  0.92034374  0.62267963     0.32600
H257        H  0.23341503  0.90176485  0.44890379     0.35400
H258        H  0.17848419  0.67136030  0.66077429     0.28000
H259        H  0.07050547  0.60232674  0.41098955     0.40900
H260        H  0.45710050  0.79340285  0.43227830     0.31000
H261        H  0.47250122  0.73927336  0.56909902     0.38600
H262        H  0.27133408  0.81050558  0.49787770     0.30400
H263        H  0.06568216  0.87770624  0.38864528     0.30500
H264        H  0.14295905  0.92547406  0.57097485     0.30800
C265        C  0.98472040  0.02922319  0.54337162    -0.12500
C266        C  0.48270113  0.05146662  0.49590014     0.04500
C267        C  0.49077289  0.02040739  0.45436032    -0.07800
C268        C  0.50782677  0.97219915  0.46220883    -0.08600
C269        C  0.01330697  0.95131383  0.51089382    -0.03100
C270        C  0.00308344  0.98186828  0.55193455     0.03700
N271        N  0.00795507  0.96471612  0.60253741     0.66200
H272        H  0.97606058  0.05137170  0.57564261     0.15100
H273        H  0.51414916  0.94962185  0.42948838     0.14800
N274        N  0.48355149  0.03728188  0.40375376     0.73900
O275        O  0.04185388  0.97793390  0.62818889    -0.39500
O276        O  0.97310215  0.95361789  0.62507627    -0.39500
O277        O  0.51674776  0.04944034  0.37858812    -0.40200
O278        O  0.44797405  0.02517824  0.38065594    -0.40200
C279        C  0.27594826  0.48668103  0.53961362    -0.12500
C280        C  0.27001703  0.45571232  0.49753864     0.04500
C281        C  0.24404820  0.47411642  0.45600642    -0.07800
C282        C  0.22524146  0.52184679  0.45761947    -0.08600
C283        C  0.23103233  0.55274765  0.49975469    -0.03100
C284        C  0.25706092  0.53434406  0.54129637     0.03700
N285        N  0.26463773  0.56263514  0.58614182     0.66200
H286        H  0.29557161  0.47403818  0.57205486     0.15100
H287        H  0.20561297  0.53451609  0.42519675     0.14800
N288        N  0.23600399  0.44549079  0.41149001     0.73900
O289        O  0.24084538  0.55374221  0.62336473    -0.39500
O290        O  0.30219842  0.58261715  0.59370703    -0.39500
O291        O  0.19856782  0.42493217  0.40496627    -0.40200
O292        O  0.25895650  0.45453789  0.37361996    -0.40200
C293        C  0.98647251  0.81764290  0.78296962    -0.12500
C294        C  0.48213562  0.77910125  0.80579539     0.04500
C295        C  0.47343028  0.81540224  0.76766543    -0.07800
C296        C  0.49640083  0.81356323  0.72269524    -0.08600
C297        C  0.02215049  0.77832066  0.71227139    -0.03100
C298        C  0.00619078  0.82159272  0.73605686     0.03700
N299        N  0.00616855  0.86922408  0.71215832     0.66200
H300        H  0.97294667  0.85102646  0.79959697     0.15100
H301        H  0.48812688  0.84007780  0.69291076     0.14800
N302        N  0.44050342  0.85324437  0.77250525     0.73900
O303        O  0.96989520  0.88434919  0.69276831    -0.39500
O304        O  0.03449436  0.90111720  0.72696840    -0.39500
O305        O  0.45310791  0.89721239  0.78217041    -0.40200
O306        O  0.40299471  0.84686991  0.75112635    -0.40200
C307        C  0.45024441  0.69076305  0.24870141    -0.12500
C308        C  0.47593874  0.69695485  0.20604462     0.04500
C309        C  0.02169777  0.69912405  0.21217857    -0.07800
C310        C  0.04326550  0.69757936  0.25967357    -0.08600
C311        C  0.01902729  0.69860692  0.30374492    -0.03100
C312        C  0.46976212  0.69167880  0.29725815     0.03700
N313        N  0.44157443  0.68785744  0.33927346     0.66200
H314        H  0.41438101  0.68843415  0.24455815     0.15100
H315        H  0.07924892  0.69891272  0.26203208     0.14800
N316        N  0.04823995  0.70060338  0.16863477     0.73900
O317        O  0.42015584  0.72595725  0.35222689    -0.39500
O318        O  0.42768688  0.64522653  0.35180666    -0.39500
O319        O  0.06726804  0.74098335  0.15741143    -0.40200
O320        O  0.06329264  0.66009322  0.15208284    -0.40200
C321        C  0.28975377  0.81182950  0.76297933    -0.12500
C322        C  0.26438942  0.80681259  0.80588941     0.04500
C323        C  0.21757064  0.80448492  0.80006427    -0.07800
C324        C  0.19755473  0.80584805  0.75182524    -0.08600
C325        C  0.22328784  0.80688878  0.70884691    -0.03100
C326        C  0.26994942  0.81050146  0.71476282     0.03700
N327        N  0.29811405  0.81038225  0.67258040     0.66200
H328        H  0.32560215  0.81251400  0.76672199     0.15100
H329        H  0.16174783  0.80227205  0.74793253     0.14800
N330        N  0.18976708  0.79870109  0.84224351     0.73900
O331        O  0.31347713  0.85145330  0.65741905    -0.39500
O332        O  0.31828792  0.77057543  0.66227783    -0.39500
O333        O  0.16840713  0.83610418  0.85709264    -0.40200
O334        O  0.17623004  0.75551500  0.85333782    -0.40200
C335        C  0.22688098  0.68638824  0.27596226    -0.12500
C336        C  0.22470210  0.73225901  0.30143622     0.04500
C337        C  0.24332790  0.77513065  0.27859367    -0.07800
C338        C  0.26355362  0.77109561  0.23267844    -0.08600
C339        C  0.26563428  0.72568483  0.20699366    -0.03100
C340        C  0.24697156  0.68269763  0.22910680     0.03700
N341        N  0.24608349  0.63563643  0.20408910     0.66200
H342        H  0.21266193  0.65305390  0.29222521     0.15100
H343        H  0.27786208  0.80469180  0.21695196     0.14800
N344        N  0.24130150  0.82390178  0.30008780     0.73900
O345        O  0.27504323  0.60342422  0.21642068    -0.39500
O346        O  0.21004683  0.62124429  0.18344441    -0.39500
O347        O  0.27614553  0.84203276  0.32028856    -0.40200
O348        O  0.21116086  0.85333282  0.28439283    -0.40200
C349        C  0.02419769  0.30453858  0.69807947    -0.12500
C350        C  0.47302662  0.30794367  0.70165852     0.04500
C351        C  0.45039225  0.30266022  0.74680863    -0.07800
C352        C  0.47453570  0.30063205  0.79292235    -0.08600
C353        C  0.02701462  0.29948666  0.78976507    -0.03100
C354        C  0.04891751  0.30293931  0.74358681     0.03700
N355        N  0.09611088  0.29953955  0.74143098     0.66200
H356        H  0.04158940  0.30427696  0.66300238     0.15100
H357        H  0.45693022  0.29369212  0.82718321     0.14800
N358        N  0.40335158  0.29528795  0.74565872     0.73900
O359        O  0.11319033  0.25758777  0.73245495    -0.39500
O360        O  0.11783432  0.33858597  0.73188719    -0.39500
O361        O  0.38788356  0.25256935  0.73542398    -0.40200
O362        O  0.37821740  0.33284933  0.74127200    -0.40200
C363        C  0.02230991  0.25620429  0.28477413    -0.12500
C364        C  0.49604118  0.22572905  0.29943040     0.04500
C365        C  0.48351602  0.19047038  0.26173378    -0.07800
C366        C  0.50362357  0.19154719  0.21518296    -0.08600
C367        C  0.03159753  0.22400324  0.20061410    -0.03100
C368        C  0.04450979  0.25690268  0.23926520     0.03700
N369        N  0.08011020  0.29138206  0.23227708     0.66200
H370        H  0.03266519  0.28245554  0.31372111     0.15100
H371        H  0.49250009  0.16576073  0.18609511     0.14800
N372        N  0.44869264  0.15506451  0.26812331     0.73900
O373        O  0.07127410  0.33519418  0.21740718    -0.39500
O374        O  0.11917849  0.27499907  0.22872799    -0.39500
O375        O  0.41130051  0.16397857  0.24737439    -0.40200
O376        O  0.45908085  0.11027229  0.27766851    -0.40200
C377        C  0.25601063  0.23170018  0.71217580    -0.12500
C378        C  0.26638051  0.27844921  0.69145057     0.04500
C379        C  0.25705194  0.32188830  0.71935489    -0.07800
C380        C  0.23866988  0.31733149  0.76703168    -0.08600
C381        C  0.22962997  0.27025419  0.78798557    -0.03100
C382        C  0.23813913  0.22707228  0.75944509     0.03700
N383        N  0.22828812  0.17782297  0.77692961     0.66200
H384        H  0.26264994  0.19753744  0.69205208     0.15100
H385        H  0.23183103  0.35097229  0.78794103     0.14800
N386        N  0.26450650  0.37085815  0.69982330     0.73900
O387        O  0.19262668  0.15734328  0.76172410    -0.39500
O388        O  0.25989025  0.15051928  0.79290333    -0.39500
O389        O  0.23144052  0.39616842  0.68434879    -0.40200
O390        O  0.29974433  0.39346185  0.71284923    -0.40200
C391        C  0.21316596  0.18958803  0.24029149    -0.12500
C392        C  0.23592975  0.19853680  0.19601448     0.04500
C393        C  0.28255521  0.20545045  0.19922137    -0.07800
C394        C  0.30470594  0.20662927  0.24616681    -0.08600
C395        C  0.28151445  0.20128592  0.29049023    -0.03100
C396        C  0.23539495  0.19145083  0.28737597     0.03700
N397        N  0.21029978  0.18441822  0.33150004     0.66200
H398        H  0.17746087  0.18436647  0.23865573     0.15100
H399        H  0.33986933  0.21499647  0.24803217     0.14800
N400        N  0.30803956  0.21236163  0.15533808     0.73900
O401        O  0.18841578  0.22071942  0.34792802    -0.39500
O402        O  0.19929937  0.14059748  0.34364790    -0.39500
O403        O  0.32312167  0.25528133  0.14591185    -0.40200
O404        O  0.32634566  0.17476725  0.13642232    -0.40200
C405        C  0.50352188  0.02937289  0.95696623    -0.12500
C406        C  0.02723892  0.04424219  0.00344345     0.04500
C407        C  0.02000777  0.01397500  0.04610738    -0.07800
C408        C  0.99846762  0.96784835  0.04049182    -0.08600
C409        C  0.48314117  0.94830059  0.99170814    -0.03100
C410        C  0.48295526  0.98271040  0.95117091     0.03700
N411        N  0.46214348  0.97168481  0.90359784     0.66200
H412        H  0.50295053  0.05435349  0.92477739     0.15100
H413        H  0.99281391  0.94612019  0.07417459     0.14800
N414        N  0.03279894  0.02951569  0.09576293     0.73900
O415        O  0.42508391  0.99158612  0.89274420    -0.39500
O416        O  0.48616632  0.95758108  0.86833672    -0.39500
O417        O  0.00356089  0.04766060  0.12332497    -0.40200
O418        O  0.06721522  0.01064049  0.11634276    -0.40200
C419        C  0.29509733  0.50573295  0.01953317    -0.12500
C420        C  0.26948594  0.54693985  0.00379803     0.04500
C421        C  0.22777551  0.53821348  0.97922708    -0.07800
C422        C  0.21285203  0.48935584  0.97103895    -0.08600
C423        C  0.23817210  0.44817048  0.98718234    -0.03100
C424        C  0.28001025  0.45677902  0.01156234     0.03700
N425        N  0.30848461  0.41652041  0.02707432     0.66200
H426        H  0.32765378  0.51141217  0.03709732     0.15100
H427        H  0.18014910  0.48376214  0.95380781     0.14800
N428        N  0.19889265  0.57829374  0.96430848     0.73900
O429        O  0.33865358  0.40303610  0.99819137    -0.39500
O430        O  0.31245427  0.40611020  0.07331258    -0.39500
O431        O  0.19352433  0.58811035  0.91807712    -0.40200
O432        O  0.16979193  0.59237799  0.99427506    -0.40200
Zr433      Zr  0.63497032  0.32244533  0.92634741     2.17500
O434        O  0.60939124  0.40329621  0.89423773    -0.51600
O435        O  0.68380637  0.30844091  0.85596556    -0.74800
O436        O  0.68556688  0.39108895  0.95441259    -0.81600
O437        O  0.53387325  0.25445937  0.86663728    -0.83300
O438        O  0.71962729  0.37155713  0.02937542    -0.78900
O439        O  0.57957091  0.32141687  0.85619422    -0.90600
O440        O  0.71080779  0.22952910  0.86412082    -0.76500
O441        O  0.69732158  0.28102949  0.96498765    -0.86000
O442        O  0.62798684  0.23607937  0.90590045    -0.85700
O443        O  0.62829213  0.33607015  0.01511713    -0.72500
O444        O  0.56563267  0.29362116  0.95913656    -0.84600
Zr445      Zr  0.61763583  0.17787559  0.06584065     2.26400
Zr446      Zr  0.69024965  0.29239841  0.05358717     2.06300
Zr447      Zr  0.56028683  0.20664687  0.93952573     2.10000
Zr448      Zr  0.69026864  0.19506282  0.94394520     1.78800
O449        O  0.98326919  0.21009641  0.94357939    -0.93400
O450        O  0.77089128  0.20283204  0.94941179    -0.41200
O451        O  0.62273303  0.16396402  0.97725915    -0.77900
O452        O  0.68667520  0.20581145  0.03277730    -0.96600
O453        O  0.62253595  0.26396099  0.08697498    -0.89900
O454        O  0.55423635  0.21852497  0.02785003    -0.92700
C455        C  0.70547560  0.27061096  0.83984734     1.01100
C456        C  0.54642764  0.29346874  0.84252064     1.14000
C457        C  0.71221863  0.40106940  0.99227545     1.04800
O458        O  0.77100395  0.29291004  0.05746739    -0.94900
O459        O  0.71685658  0.24599372  0.12642564    -0.90600
O460        O  0.67013660  0.18039786  0.13796077    -0.83700
C461        C  0.70371375  0.20773891  0.15097924     1.11400
O462        O  0.51875699  0.37805587  0.01821849    -0.96800
Zr463      Zr  0.56050822  0.30491740  0.04792169     1.88900
O464        O  0.56840743  0.19128942  0.13450286    -0.73500
O465        O  0.68174054  0.34684589  0.12582881    -0.52700
O466        O  0.57442514  0.37711602  0.10162831    -0.97400
O467        O  0.98441196  0.29808669  0.04259419    -0.54600
O468        O  0.54932339  0.27355167  0.13198926    -0.74000
C469        C  0.55216371  0.23078512  0.15376241     0.98400
O470        O  0.64857723  0.09908827  0.09706804    -0.62800
O471        O  0.56182195  0.14899777  0.86890221    -0.57600
O472        O  0.57031967  0.10625656  0.04382417    -0.94300
O473        O  0.53843785  0.12390000  0.96743847    -0.92700
O474        O  0.67259295  0.12895543  0.88406233    -0.93100
O475        O  0.72801710  0.11763245  0.96780418    -0.91900
C476        C  0.54558031  0.09466393  0.00534260     1.17200
H477        H  0.62680767  0.23127554  0.86975354     0.33100
H478        H  0.71123410  0.18783724  0.04856420     0.44000
H479        H  0.52709998  0.20427496  0.03968117     0.37500
H480        H  0.62988096  0.37125668  0.02248433     0.34000
H481        H  0.78146913  0.18518609  0.91941414     0.25800
H482        H  0.71214083  0.35897518  0.13411743     0.31700
H483        H  0.54872460  0.37843031  0.12390542     0.37600
H484        H  0.70167990  0.11718975  0.87253031     0.32100
H485        H  0.53034739  0.14537486  0.85765682     0.31000
H486        H  0.97172152  0.19895894  0.91023130     0.32700
H487        H  0.97703594  0.26857877  0.06331212     0.31600
H488        H  0.70829668  0.10163327  0.99226122     0.35600
H489        H  0.62580306  0.08500556  0.11911861     0.28300
H490        H  0.63473696  0.41733483  0.87598934     0.32600
H491        H  0.49997896  0.38825594  0.04630052     0.35400
H492        H  0.57578751  0.16769956  0.84135550     0.28000
H493        H  0.64909706  0.07659355  0.06764630     0.40900
H494        H  0.77957486  0.26112765  0.04154696     0.31000
H495        H  0.77689765  0.23854377  0.94248083     0.38600
H496        H  0.97687774  0.28794925  0.00763568     0.30400
H497        H  0.66581540  0.37662018  0.11240170     0.30500
H498        H  0.60672283  0.42467647  0.92427498     0.30800
Zr499      Zr  0.88126654  0.82204665  0.93360517     2.17500
O500        O  0.85464700  0.90207801  0.90043206    -0.51600
O501        O  0.93320881  0.80458547  0.86704923    -0.74800
O502        O  0.93300235  0.89096987  0.95366924    -0.81600
O503        O  0.77622962  0.75854378  0.87763114    -0.83300
O504        O  0.96591438  0.87229905  0.02939115    -0.78900
O505        O  0.82670019  0.81971603  0.86269742    -0.90600
O506        O  0.96333120  0.72796620  0.88086783    -0.76500
O507        O  0.94288727  0.77893861  0.97212566    -0.86000
O508        O  0.87143541  0.73561741  0.91547489    -0.85700
O509        O  0.87694153  0.83808357  0.02248054    -0.72500
O510        O  0.81154029  0.79901978  0.96914987    -0.84600
Zr511      Zr  0.86029646  0.68207231  0.07774553     2.26400
Zr512      Zr  0.93839604  0.79326622  0.06028992     2.06300
Zr513      Zr  0.80259339  0.71239871  0.95103445     2.10000
Zr514      Zr  0.93233282  0.69262509  0.95486332     1.78800
O515        O  0.72322236  0.72337559  0.96144698    -0.93400
O516        O  0.51076831  0.68470337  0.96218425    -0.41200
O517        O  0.86354657  0.66733628  0.98908621    -0.77900
O518        O  0.93018655  0.70589419  0.04328162    -0.96600
O519        O  0.87015943  0.76839473  0.09675057    -0.89900
O520        O  0.79871464  0.72529205  0.03937333    -0.92700
C521        C  0.95863538  0.76808996  0.85513447     1.01100
C522        C  0.79128752  0.79451054  0.85117366     1.14000
C523        C  0.95953347  0.90119414  0.99117888     1.04800
O524        O  0.52079614  0.78167875  0.05578725    -0.94900
O525        O  0.96470477  0.74823426  0.13445998    -0.90600
O526        O  0.91509409  0.68582895  0.14855953    -0.83700
C527        C  0.95026520  0.71139513  0.16024322     1.11400
O528        O  0.77853882  0.89305544  0.03540619    -0.96800
Zr529      Zr  0.80896050  0.81133241  0.05830960     1.88900
O530        O  0.80693963  0.69616874  0.14358624    -0.73500
O531        O  0.94285955  0.85080371  0.13103440    -0.52700
O532        O  0.83147710  0.87103829  0.12313057    -0.97400
O533        O  0.72805099  0.81422329  0.05071989    -0.54600
O534        O  0.78061728  0.77511117  0.13437832    -0.74000
C535        C  0.78292624  0.73309869  0.15757013     0.98400
O536        O  0.88366330  0.59925835  0.10677069    -0.62800
O537        O  0.79343534  0.65479937  0.88070321    -0.57600
O538        O  0.81325202  0.61102283  0.05073713    -0.94300
O539        O  0.77860245  0.63051724  0.97603632    -0.92700
O540        O  0.91635045  0.63399928  0.88709435    -0.93100
O541        O  0.95738981  0.60791101  0.97363466    -0.91900
C542        C  0.78692092  0.60070103  0.01285950     1.17200
H543        H  0.87053177  0.72980956  0.87947220     0.33100
H544        H  0.95403629  0.68708513  0.05902836     0.44000
H545        H  0.77100173  0.71264426  0.05145913     0.37500
H546        H  0.87980451  0.87392701  0.02897517     0.34000
H547        H  0.52131343  0.66902973  0.93109146     0.25800
H548        H  0.97448834  0.86087748  0.13356069     0.31700
H549        H  0.84338711  0.85039915  0.15143924     0.37600
H550        H  0.88520096  0.62367603  0.89190244     0.32100
H551        H  0.76246976  0.65970243  0.86806872     0.31000
H552        H  0.70912401  0.69998714  0.93704555     0.32700
H553        H  0.71866043  0.83229210  0.08096083     0.31600
H554        H  0.93466809  0.59413368  0.99597956     0.35600
H555        H  0.91643408  0.59906914  0.10472254     0.28300
H556        H  0.87848290  0.91456250  0.87887849     0.32600
H557        H  0.76657680  0.90689289  0.06667587     0.35400
H558        H  0.81196058  0.66857416  0.85383506     0.28000
H559        H  0.87784257  0.59826957  0.14319838     0.40900
H560        H  0.52646009  0.74524588  0.05530338     0.31000
H561        H  0.52163340  0.71956981  0.96041778     0.38600
H562        H  0.71795698  0.77947521  0.05616239     0.30400
H563        H  0.92697123  0.88123536  0.11918182     0.30500
H564        H  0.85464465  0.92496674  0.92957335     0.30800
Zr565      Zr  0.86615977  0.32233290  0.56430210     2.17500
O566        O  0.89227950  0.40246762  0.59685283    -0.51600
O567        O  0.81548712  0.31198101  0.63333454    -0.74800
O568        O  0.81530121  0.39063241  0.53891373    -0.81600
O569        O  0.96806617  0.25690343  0.62330022    -0.83300
O570        O  0.78231021  0.37279230  0.46304444    -0.78900
O571        O  0.91981003  0.32071757  0.63573110    -0.90600
O572        O  0.78825793  0.23370412  0.62326676    -0.76500
O573        O  0.80366854  0.27803369  0.52938020    -0.86000
O574        O  0.87720893  0.23623994  0.58522787    -0.85700
O575        O  0.86905460  0.33588435  0.47481981    -0.72500
O576        O  0.93548249  0.29886209  0.52785144    -0.84600
Zr577      Zr  0.88584939  0.17972363  0.42383628     2.26400
Zr578      Zr  0.80684077  0.28979621  0.44042903     2.06300
Zr579      Zr  0.94522960  0.21246846  0.54814439     2.10000
Zr580      Zr  0.81561444  0.19241871  0.54944320     1.78800
O581        O  0.52396047  0.21852238  0.55666294    -0.93400
O582        O  0.73532409  0.18664026  0.53617039    -0.41200
O583        O  0.88362547  0.16683912  0.51327477    -0.77900
O584        O  0.81642887  0.20292604  0.46000152    -0.96600
O585        O  0.87461803  0.26533561  0.40285212    -0.89900
O586        O  0.94817342  0.22374762  0.45930037    -0.92700
C587        C  0.79159649  0.27510881  0.64739662     1.01100
C588        C  0.95370781  0.29370179  0.64869715     1.14000
C589        C  0.78969727  0.40174512  0.50064828     1.04800
O590        O  0.72778577  0.27852655  0.45325419    -0.94900
O591        O  0.77978418  0.24303221  0.36834230    -0.90600
O592        O  0.83088669  0.18253299  0.35382538    -0.83700
C593        C  0.79520844  0.20715716  0.34241521     1.11400
O594        O  0.96182850  0.39443248  0.45368838    -0.96800
Zr595      Zr  0.93640468  0.30918349  0.43801498     1.88900
O596        O  0.93677242  0.19173013  0.35467337    -0.73500
O597        O  0.79632080  0.34013717  0.36461098    -0.52700
O598        O  0.91025889  0.36325191  0.36935830    -0.97400
O599        O  0.52518175  0.31319616  0.46765283    -0.54600
O600        O  0.96497446  0.26989750  0.36327177    -0.74000
C601        C  0.96117359  0.22809801  0.33990469     0.98400
O602        O  0.86517020  0.09618631  0.39537314    -0.62800
O603        O  0.96090421  0.15398136  0.61709651    -0.57600
O604        O  0.93185269  0.10840723  0.45031621    -0.94300
O605        O  0.96640967  0.12919174  0.52446740    -0.92700
O606        O  0.83042550  0.13375631  0.61825512    -0.93100
O607        O  0.79226299  0.10641650  0.53486876    -0.91900
C608        C  0.95751293  0.09853954  0.48866039     1.17200
H609        H  0.87889761  0.23114477  0.62138047     0.33100
H610        H  0.79271832  0.18343757  0.44514497     0.44000
H611        H  0.97581073  0.21119286  0.44693080     0.37500
H612        H  0.86644337  0.37110928  0.46690714     0.34000
H613        H  0.72423307  0.22092386  0.54177194     0.25800
H614        H  0.76486078  0.35073767  0.36473708     0.31700
H615        H  0.93502227  0.36439034  0.34575462     0.37600
H616        H  0.86280029  0.13617100  0.62535343     0.32100
H617        H  0.99189676  0.16106187  0.62839015     0.31000
H618        H  0.53380215  0.19341811  0.58209791     0.32700
H619        H  0.53716660  0.28134222  0.45504293     0.31600
H620        H  0.80336461  0.09831063  0.50122091     0.35600
H621        H  0.83240623  0.09469294  0.39715607     0.28300
H622        H  0.86781325  0.41512541  0.61731202     0.32600
H623        H  0.97541607  0.40579028  0.42219338     0.35400
H624        H  0.94252725  0.16526265  0.64510124     0.28000
H625        H  0.87124333  0.09572026  0.35900019     0.40900
H626        H  0.71297867  0.29605800  0.42448649     0.31000
H627        H  0.73046682  0.18102814  0.49967558     0.38600
H628        H  0.52672217  0.30965839  0.50472387     0.30400
H629        H  0.81374300  0.37096307  0.37092362     0.30500
H630        H  0.89294195  0.42510842  0.56732859     0.30800
Zr631      Zr  0.61321524  0.82117675  0.57419203     2.17500
O632        O  0.64456828  0.90096837  0.60135652    -0.51600
O633        O  0.56483322  0.80920445  0.64483581    -0.74800
O634        O  0.56386399  0.89174739  0.55265029    -0.81600
O635        O  0.71600403  0.75564466  0.63178785    -0.83300
O636        O  0.52812980  0.87204392  0.47886596    -0.78900
O637        O  0.66781242  0.81958365  0.64433335    -0.90600
O638        O  0.54289617  0.72781561  0.64441730    -0.76500
O639        O  0.54879720  0.77918912  0.54121497    -0.86000
O640        O  0.62181191  0.73531812  0.59649029    -0.85700
O641        O  0.61470285  0.83334669  0.48449957    -0.72500
O642        O  0.68126083  0.79396156  0.53800632    -0.84600
Zr643      Zr  0.62611996  0.67528732  0.43733077     2.26400
Zr644      Zr  0.55061597  0.78930335  0.45205399     2.06300
Zr645      Zr  0.68854070  0.70769899  0.55999994     2.10000
Zr646      Zr  0.55803847  0.69343714  0.56289622     1.78800
O647        O  0.76795996  0.71561095  0.54749144    -0.93400
O648        O  0.97943345  0.69851463  0.55182215    -0.41200
O649        O  0.62490021  0.66387185  0.52683785    -0.77900
O650        O  0.55791821  0.70263508  0.47338850    -0.96600
O651        O  0.61747315  0.76114506  0.41515822    -0.89900
O652        O  0.69004129  0.71754251  0.47090740    -0.92700
C653        C  0.54652095  0.77093381  0.66484465     1.01100
C654        C  0.70223513  0.79318390  0.65674469     1.14000
C655        C  0.53724766  0.90220756  0.51523862     1.04800
O656        O  0.97409643  0.77942557  0.45634081    -0.94900
O657        O  0.52358819  0.74303492  0.37890066    -0.90600
O658        O  0.57324844  0.68061511  0.36542526    -0.83700
C659        C  0.53851497  0.70660974  0.35313164     1.11400
O660        O  0.71360082  0.88469676  0.46725455    -0.96800
Zr661      Zr  0.68118182  0.80306682  0.44838697     1.88900
O662        O  0.67528045  0.68331118  0.36627328    -0.73500
O663        O  0.54150640  0.84303422  0.37816689    -0.52700
O664        O  0.66190947  0.86368680  0.38256611    -0.97400
O665        O  0.76222212  0.80127800  0.45340558    -0.54600
O666        O  0.70058384  0.76329530  0.37061807    -0.74000
C667        C  0.69637532  0.72091501  0.34857835     0.98400
O668        O  0.59539993  0.59317043  0.41670041    -0.62800
O669        O  0.69819571  0.65182519  0.63206620    -0.57600
O670        O  0.67599165  0.60626586  0.46201946    -0.94300
O671        O  0.70836874  0.62316206  0.53846543    -0.92700
O672        O  0.57166330  0.62610401  0.62320050    -0.93100
O673        O  0.52063073  0.61516007  0.54214799    -0.91900
C674        C  0.70074107  0.59447763  0.50075687     1.17200
H675        H  0.62469480  0.73089008  0.63289059     0.33100
H676        H  0.53328781  0.68404896  0.45913565     0.44000
H677        H  0.71696339  0.70334090  0.45786685     0.37500
H678        H  0.61280908  0.86849709  0.47624500     0.34000
H679        H  0.96860877  0.68085862  0.58186731     0.25800
H680        H  0.51055514  0.85538998  0.37900491     0.31700
H681        H  0.64107693  0.84582798  0.35941228     0.37600
H682        H  0.59697332  0.63792616  0.64459196     0.32100
H683        H  0.72915539  0.65730836  0.64440840     0.31000
H684        H  0.77473232  0.75113673  0.55459128     0.32700
H685        H  0.77160304  0.81642184  0.42140003     0.31600
H686        H  0.54145279  0.59737935  0.52038511     0.35600
H687        H  0.59668152  0.57422193  0.44877611     0.28300
H688        H  0.62202081  0.91620426  0.62281071     0.32600
H689        H  0.72951729  0.89493171  0.43685534     0.35400
H690        H  0.67960508  0.66599305  0.65853346     0.28000
H691        H  0.56321295  0.59861079  0.41025741     0.40900
H692        H  0.96074448  0.80732743  0.43653048     0.31000
H693        H  0.97157882  0.73393838  0.55737403     0.38600
H694        H  0.77060898  0.76568790  0.45057537     0.30400
H695        H  0.56013272  0.87275235  0.38556536     0.30500
H696        H  0.64487988  0.92216050  0.57074598     0.30800
C697        C  0.49310110  0.03281876  0.54448257    -0.12500
C698        C  0.97686102  0.04786253  0.49442613     0.04500
C699        C  0.98748974  0.01753478  0.45336279    -0.07800
C700        C  0.00513780  0.96989498  0.46194047    -0.08600
C701        C  0.51776340  0.95337060  0.51076952    -0.03100
C702        C  0.51046960  0.98472021  0.55229467     0.03700
N703        N  0.51883590  0.96828824  0.60285592     0.66200
H704        H  0.48697750  0.05538957  0.57726382     0.15100
H705        H  0.01381625  0.94788968  0.42959424     0.14800
N706        N  0.98353989  0.03526417  0.40276015     0.73900
O707        O  0.55341314  0.98356853  0.62595625    -0.39500
O708        O  0.48650749  0.95349401  0.62807465    -0.39500
O709        O  0.01810850  0.05023544  0.38168727    -0.40200
O710        O  0.95079369  0.02116947  0.37570900    -0.40200
C711        C  0.75421541  0.47187833  0.54536319    -0.12500
C712        C  0.76727780  0.45127108  0.49983333     0.04500
C713        C  0.75801193  0.47831967  0.45473819    -0.07800
C714        C  0.73593485  0.52429053  0.45615160    -0.08600
C715        C  0.72273671  0.54477799  0.50161912    -0.03100
C716        C  0.73201151  0.51782637  0.54673279     0.03700
N717        N  0.71745015  0.53501453  0.59419601     0.66200
H718        H  0.76035775  0.45162153  0.58027938     0.15100
H719        H  0.72994477  0.54463430  0.42125033     0.14800
N720        N  0.77211131  0.46113537  0.40710828     0.73900
O721        O  0.68175634  0.51770925  0.61080254    -0.39500
O722        O  0.74570288  0.55346117  0.62481040    -0.39500
O723        O  0.74321527  0.44398985  0.37647374    -0.40200
O724        O  0.80772842  0.47837723  0.39023130    -0.40200
C725        C  0.51635524  0.74435511  0.79871032    -0.12500
C726        C  0.98325951  0.77146505  0.80775658     0.04500
C727        C  0.00199540  0.72883567  0.78514495    -0.07800
C728        C  0.02069111  0.73281037  0.73823478    -0.08600
C729        C  0.52795208  0.77637297  0.71483007    -0.03100
C730        C  0.53903835  0.74261620  0.75393569     0.03700
N731        N  0.57377387  0.70673735  0.74931401     0.66200
H732        H  0.52531962  0.71740838  0.82782656     0.15100
H733        H  0.03433309  0.69927095  0.72199706     0.14800
N734        N  0.00183390  0.68050969  0.80813054     0.73900
O735        O  0.61176794  0.71678004  0.76789182    -0.39500
O736        O  0.56359942  0.66166065  0.74139790    -0.39500
O737        O  0.97444668  0.64838473  0.79165991    -0.40200
O738        O  0.03657028  0.66579704  0.83145516    -0.40200
C739        C  0.95054808  0.69664255  0.25215167    -0.12500
C740        C  0.97470885  0.70001900  0.20817635     0.04500
C741        C  0.52270009  0.70018294  0.21261258    -0.07800
C742        C  0.54227211  0.69920729  0.26105974    -0.08600
C743        C  0.51629202  0.69694156  0.30372691    -0.03100
C744        C  0.97206966  0.69682725  0.29962762     0.03700
N745        N  0.94541562  0.69659689  0.34307756     0.66200
H746        H  0.91454762  0.69729292  0.24984940     0.15100
H747        H  0.57800917  0.70334714  0.26536872     0.14800
N748        N  0.55104766  0.70544261  0.17086717     0.73900
O749        O  0.92832549  0.73713356  0.35684978    -0.39500
O750        O  0.92800119  0.65596273  0.35648319    -0.39500
O751        O  0.56751285  0.74781737  0.16192764    -0.40200
O752        O  0.57031426  0.66706472  0.15489531    -0.40200
C753        C  0.79295824  0.80638951  0.75881387    -0.12500
C754        C  0.76777957  0.80445580  0.80223090     0.04500
C755        C  0.72083758  0.80463573  0.79672276    -0.07800
C756        C  0.70045196  0.80568044  0.74862379    -0.08600
C757        C  0.72568121  0.80376513  0.70533369    -0.03100
C758        C  0.77251148  0.80478825  0.71072831     0.03700
N759        N  0.80001450  0.80280567  0.66803225     0.66200
H760        H  0.82891718  0.80560773  0.76215686     0.15100
H761        H  0.66450326  0.80431169  0.74521587     0.14800
N762        N  0.69309086  0.80183602  0.83921883     0.73900
O763        O  0.81532449  0.84308568  0.65084027    -0.39500
O764        O  0.81912464  0.76224053  0.65808457    -0.39500
O765        O  0.67410637  0.84109014  0.85346494    -0.40200
O766        O  0.67688666  0.76003923  0.85096494    -0.40200
C767        C  0.70688803  0.75975820  0.26643494    -0.12500
C768        C  0.71486046  0.71843747  0.29779103     0.04500
C769        C  0.74212656  0.67954972  0.28078533    -0.07800
C770        C  0.76279756  0.68438924  0.23436336    -0.08600
C771        C  0.75682114  0.72736741  0.20407737    -0.03100
C772        C  0.72717755  0.76477451  0.22035832     0.03700
N773        N  0.71742353  0.80887791  0.19162790     0.66200
H774        H  0.68516147  0.78946529  0.27839866     0.15100
H775        H  0.78479586  0.65481841  0.22288881     0.14800
N776        N  0.75145998  0.63633192  0.31092134     0.73900
O777        O  0.68054634  0.81166667  0.16794582    -0.39500
O778        O  0.73754255  0.84878808  0.20314309    -0.39500
O779        O  0.73108602  0.59628941  0.30061159    -0.40200
O780        O  0.78805800  0.63400071  0.33521785    -0.40200
C781        C  0.51908397  0.31474860  0.70351117    -0.12500
C782        C  0.97771980  0.30325270  0.69708124     0.04500
C783        C  0.95559095  0.30207154  0.74285358    -0.07800
C784        C  0.98016041  0.29992822  0.78871115    -0.08600
C785        C  0.52125795  0.30514682  0.79478515    -0.03100
C786        C  0.54323604  0.31413193  0.74938419     0.03700
N787        N  0.59046648  0.31791133  0.74822688     0.66200
H788        H  0.53676520  0.31823732  0.66878484     0.15100
H789        H  0.96260445  0.29683185  0.82354172     0.14800
N790        N  0.90825402  0.29934315  0.74285086     0.73900
O791        O  0.61260595  0.27931941  0.73848430    -0.39500
O792        O  0.60758027  0.36026758  0.74092369    -0.39500
O793        O  0.88933005  0.25811059  0.73388030    -0.40200
O794        O  0.88624377  0.33917771  0.73778444    -0.40200
C795        C  0.53078362  0.25944481  0.28937707    -0.12500
C796        C  0.98676519  0.22290719  0.29275907     0.04500
C797        C  0.97549868  0.18825040  0.25405400    -0.07800
C798        C  0.99816945  0.18907063  0.20876903    -0.08600
C799        C  0.53578645  0.22709797  0.20476677    -0.03100
C800        C  0.55059115  0.26024301  0.24243369     0.03700
N801        N  0.58568230  0.29479655  0.23306806     0.66200
H802        H  0.54207645  0.28601820  0.31758934     0.15100
H803        H  0.98817465  0.16365733  0.17888098     0.14800
N804        N  0.93931623  0.15418536  0.25787911     0.73900
O805        O  0.57613544  0.33854224  0.21854824    -0.39500
O806        O  0.62452167  0.27852147  0.22737629    -0.39500
O807        O  0.90336760  0.16467568  0.23465383    -0.40200
O808        O  0.94787947  0.10891954  0.26742986    -0.40200
C809        C  0.75096888  0.23265170  0.71447962    -0.12500
C810        C  0.76739451  0.27782407  0.69550642     0.04500
C811        C  0.76113975  0.32192697  0.72397410    -0.07800
C812        C  0.74006528  0.31916306  0.77042812    -0.08600
C813        C  0.72520992  0.27334096  0.78954775    -0.03100
C814        C  0.73010865  0.22996020  0.76020505     0.03700
N815        N  0.71346524  0.18240116  0.77535597     0.66200
H816        H  0.75463730  0.19804600  0.69404657     0.15100
H817        H  0.73601037  0.35300942  0.79201435     0.14800
N818        N  0.77489813  0.36990707  0.70658703     0.73900
O819        O  0.67715168  0.16731096  0.75594619    -0.39500
O820        O  0.74058568  0.15062724  0.79335881    -0.39500
O821        O  0.74643328  0.39766265  0.68469004    -0.40200
O822        O  0.80854456  0.38998730  0.72740935    -0.40200
C823        C  0.70405472  0.18913956  0.24235674    -0.12500
C824        C  0.72811798  0.19659186  0.19870401     0.04500
C825        C  0.77485596  0.20055490  0.20287936    -0.07800
C826        C  0.79614075  0.20048477  0.25030855    -0.08600
C827        C  0.77189317  0.19652921  0.29409090    -0.03100
C828        C  0.72543827  0.18958728  0.28991571     0.03700
N829        N  0.69935321  0.18333621  0.33339211     0.66200
H830        H  0.66818959  0.18580411  0.23980863     0.15100
H831        H  0.83159322  0.20671116  0.25306098     0.14800
N832        N  0.80128529  0.20516008  0.15943265     0.73900
O833        O  0.67717060  0.21991254  0.34871935    -0.39500
O834        O  0.68827539  0.13971292  0.34613326    -0.39500
O835        O  0.81837689  0.24693635  0.14935546    -0.40200
O836        O  0.81752618  0.16616020  0.14089876    -0.40200
C837        C  0.01263582  0.02630516  0.95605254    -0.12500
C838        C  0.52433040  0.04404871  0.00268770     0.04500
C839        C  0.52459439  0.00954539  0.04322897    -0.07800
C840        C  0.50447169  0.96265066  0.03721929    -0.08600
C841        C  0.98329553  0.95022380  0.99315116    -0.03100
C842        C  0.99071519  0.98041435  0.95050683     0.03700
N843        N  0.97664235  0.96565381  0.90104336     0.66200
H844        H  0.01814461  0.04811589  0.92238445     0.15100
H845        H  0.50481624  0.93771362  0.06944394     0.14800
N846        N  0.54403808  0.02113738  0.09138390     0.73900
O847        O  0.94163837  0.98477319  0.88211948    -0.39500
O848        O  0.00524905  0.94864730  0.87197427    -0.39500
O849        O  0.51890795  0.03517205  0.12568017    -0.40200
O850        O  0.58102124  0.00178686  0.10366297    -0.40200
C851        C  0.78809756  0.50955865  0.03253574    -0.12500
C852        C  0.76627606  0.55018454  0.00940967     0.04500
C853        C  0.72726848  0.54077529  0.97965657    -0.07800
C854        C  0.71179732  0.49187417  0.97294105    -0.08600
C855        C  0.73359423  0.45119740  0.99585653    -0.03100
C856        C  0.77231462  0.46061281  0.02633486     0.03700
N857        N  0.79700157  0.42118061  0.05046021     0.66200
H858        H  0.81836440  0.51553405  0.05480755     0.15100
H859        H  0.68133512  0.48605390  0.95098245     0.14800
N860        N  0.70144219  0.58038788  0.95762198     0.73900
O861        O  0.83168036  0.40560614  0.03020733    -0.39500
O862        O  0.79266381  0.41399570  0.09697622    -0.39500
O863        O  0.70237377  0.58723612  0.91070616    -0.40200
O864        O  0.66883420  0.59683418  0.98118253    -0.40200
loop_ 
_geom_bond_atom_site_label_1 
_geom_bond_atom_site_label_2 
_geom_bond_distance 
_geom_bond_site_symmetry_2 
_ccdc_geom_bond_type 
Zr1           O2   2.439       .  S
Zr1           O3   2.436       .  S
Zr1           O4   2.476       .  S
Zr1           O7   2.464       .  S
Zr1           O9   2.384       .  S
Zr1          O10   2.382       .  S
Zr1          O11   2.408   1_556  S
Zr1          O12   2.410       .  S
O2           H58   0.990       .  S
O2           H66   0.990       .  S
O3           C23   1.286       .  A
O4           C25   1.294       .  A
O5          Zr15   2.439       .  S
O5           C24   1.286       .  A
O6          Zr14   2.397       .  S
O6           C25   1.277   1_554  A
O7           C24   1.291       .  A
O8          Zr16   2.410       .  S
O8           C23   1.280       .  A
O9          Zr14   2.392   1_556  S
O9          Zr16   2.379       .  S
O10         Zr15   2.379       .  S
O10         Zr16   2.370       .  S
O10          H45   0.972       .  S
O11         Zr14   2.398       .  S
O11         Zr31   2.395       .  S
O11          H48   0.963       .  S
O12         Zr15   2.385       .  S
O12         Zr31   2.397   1_556  S
Zr13         O38   2.438       .  S
Zr13         O32   2.426       .  S
Zr13         O40   2.453       .  S
Zr13         O28   2.466       .  S
Zr13         O19   2.403   1_554  S
Zr13         O20   2.401       .  S
Zr13         O21   2.379       .  S
Zr13         O22   2.395       .  S
Zr14         O33   2.438       .  S
Zr14         O26   2.432       .  S
Zr14         O27   2.405       .  S
Zr14         O20   2.389       .  S
Zr14         O21   2.382       .  S
Zr15         O39   2.439       .  S
Zr15        O449   2.434   1_455  S
Zr15         O41   2.419       .  S
Zr15         O19   2.396       .  S
Zr15         O22   2.388   1_556  S
Zr16         O42   2.433       .  S
Zr16         O43   2.434       .  S
Zr16         O18   2.438       .  S
Zr16         O19   2.392       .  S
Zr16         O20   2.389   1_556  S
O17        Zr447   2.435       .  S
O17          H54   0.990       .  S
O18          H49   0.990       .  S
O18          H63   0.990       .  S
O20          H46   0.965       .  S
O21         Zr31   2.377       .  S
O22         Zr31   2.377       .  S
O22          H47   0.965       .  S
C23         C381   1.481       .  S
C24         C353   1.492       .  S
C25         C423   1.484       .  S
O26          H62   0.990       .  S
O27          C29   1.279       .  A
O28          C29   1.291       .  A
C29         C392   1.481       .  S
O30         Zr31   2.441       .  S
O30          H59   0.990       .  S
Zr31         O34   2.436       .  S
Zr31        O467   2.441   1_455  S
Zr31         O36   2.428       .  S
O32          C37   1.282       .  A
O33          H50   0.990       .  S
O33          H65   0.990       .  S
O34          H51   0.990       .  S
O35        Zr463   2.442       .  S
O35          H55   0.990       .  S
O35          H64   0.990       .  S
O36          C37   1.284       .  A
C37         C367   1.470       .  S
O38          H57   0.990       .  S
O38          H61   0.990       .  S
O39          H53   0.990       .  S
O39          H60   0.990       .  S
O40          C44   1.288       .  A
O41          C44   1.284   1_556  A
O42          H52   0.990       .  S
O43          H56   0.990       .  S
C44         C406   1.494       .  S
Zr67         O68   2.435       .  S
Zr67         O69   2.431       .  S
Zr67         O70   2.453       .  S
Zr67         O73   2.449       .  S
Zr67         O75   2.389       .  S
Zr67         O76   2.385       .  S
Zr67         O77   2.405   1_556  S
Zr67         O78   2.402       .  S
O68         H124   0.990       .  S
O68         H132   0.990       .  S
O69          C89   1.282       .  A
O70          C91   1.287       .  A
O71         Zr81   2.413       .  S
O71          C90   1.280       .  A
O72         Zr80   2.429       .  S
O72          C91   1.286   1_554  A
O73          C90   1.289       .  A
O74         Zr82   2.423       .  S
O74          C89   1.285       .  A
O75         Zr80   2.388   1_556  S
O75         Zr82   2.374       .  S
O76         Zr81   2.390       .  S
O76         Zr82   2.373       .  S
O76         H111   0.971       .  S
O77         Zr80   2.396       .  S
O77         Zr97   2.389       .  S
O77         H114   0.972       .  S
O78         Zr81   2.383       .  S
O78         Zr97   2.390   1_556  S
Zr79        O104   2.439       .  S
Zr79         O98   2.443       .  S
Zr79        O106   2.469       .  S
Zr79         O94   2.465       .  S
Zr79         O85   2.400   1_554  S
Zr79         O86   2.412       .  S
Zr79         O87   2.386       .  S
Zr79         O88   2.390       .  S
Zr80         O99   2.437       .  S
Zr80        O524   2.435       .  S
Zr80         O93   2.419       .  S
Zr80         O86   2.399       .  S
Zr80         O87   2.391       .  S
Zr81         O83   2.434       .  S
Zr81        O105   2.438       .  S
Zr81        O107   2.397       .  S
Zr81         O85   2.396       .  S
Zr81         O88   2.384   1_556  S
Zr82        O108   2.435       .  S
Zr82        O109   2.436       .  S
Zr82        O516   2.437       .  S
Zr82         O85   2.390       .  S
Zr82         O86   2.395   1_556  S
O83         H120   0.990       .  S
O84        Zr514   2.438   1_455  S
O84         H115   0.990       .  S
O84         H129   0.990       .  S
O86         H112   0.961       .  S
O87         Zr97   2.375       .  S
O88         Zr97   2.376       .  S
O88         H113   0.966       .  S
C89         C294   1.488       .  S
C90         C322   1.479       .  S
C91         C409   1.497       .  S
O92        Zr512   2.434   1_455  S
O92         H128   0.990       .  S
O93          C95   1.281       .  A
O94          C95   1.291       .  A
C95         C308   1.485       .  S
O96         Zr97   2.440       .  S
O96         H125   0.990       .  S
Zr97        O100   2.438       .  S
Zr97        O101   2.438       .  S
Zr97        O102   2.409       .  S
O98         C103   1.283       .  A
O99         H116   0.990       .  S
O99         H131   0.990       .  S
O100        H117   0.990       .  S
O101        H121   0.990       .  S
O101        H130   0.990       .  S
O102        C103   1.283       .  A
C103        C339   1.482       .  S
O104        H123   0.990       .  S
O104        H127   0.990       .  S
O105        H119   0.990       .  S
O105        H126   0.990       .  S
O106        C110   1.292       .  A
O107        C110   1.277   1_556  A
O108        H118   0.990       .  S
O109        H122   0.990       .  S
C110        C420   1.485       .  S
Zr133       O134   2.439       .  S
Zr133       O135   2.440       .  S
Zr133       O136   2.452       .  S
Zr133       O139   2.448       .  S
Zr133       O141   2.384       .  S
Zr133       O142   2.382       .  S
Zr133       O143   2.406       .  S
Zr133       O144   2.408       .  S
O134        H190   0.990       .  S
O134        H198   0.990       .  S
O135        C155   1.283       .  A
O136        C157   1.290       .  A
O137       Zr147   2.419       .  S
O137        C156   1.282       .  A
O138       Zr146   2.416       .  S
O138        C157   1.280       .  A
O139        C156   1.287       .  A
O140       Zr148   2.413       .  S
O140        C155   1.283       .  A
O141       Zr146   2.390       .  S
O141       Zr148   2.375       .  S
O142       Zr147   2.386       .  S
O142       Zr148   2.370       .  S
O142        H177   0.962       .  S
O143       Zr146   2.399       .  S
O143       Zr163   2.397       .  S
O143        H180   0.967       .  S
O144       Zr147   2.391       .  S
O144       Zr163   2.401       .  S
Zr145       O170   2.447       .  S
Zr145       O164   2.428       .  S
Zr145       O172   2.456       .  S
Zr145       O160   2.461       .  S
Zr145       O151   2.398       .  S
Zr145       O152   2.406       .  S
Zr145       O153   2.383       .  S
Zr145       O154   2.390       .  S
Zr146       O165   2.435       .  S
Zr146       O158   2.433       .  S
Zr146       O159   2.415       .  S
Zr146       O152   2.397       .  S
Zr146       O153   2.391       .  S
Zr147       O171   2.441       .  S
Zr147       O581   2.435       .  S
Zr147       O173   2.417       .  S
Zr147       O151   2.390       .  S
Zr147       O154   2.388       .  S
Zr148       O174   2.436       .  S
Zr148       O175   2.436       .  S
Zr148       O150   2.436       .  S
Zr148       O151   2.388       .  S
Zr148       O152   2.386       .  S
O149       Zr579   2.435   1_455  S
O149        H186   0.990       .  S
O150        H181   0.990       .  S
O150        H195   0.990       .  S
O152        H178   0.966       .  S
O153       Zr163   2.376       .  S
O154       Zr163   2.375       .  S
O154        H179   0.967       .  S
C155        C378   1.486       .  S
C156        C350   1.475       .  S
C157        C280   1.494       .  S
O158        H194   0.990       .  S
O159        C161   1.280       .  A
O160        C161   1.289       .  A
C161        C395   1.475       .  S
O162       Zr163   2.441       .  S
O162        H191   0.991       .  S
Zr163       O166   2.437       .  S
Zr163       O599   2.440       .  S
Zr163       O168   2.438       .  S
O164        C169   1.283       .  A
O165        H182   0.990       .  S
O165        H197   0.990       .  S
O166        H183   0.990       .  S
O167       Zr595   2.438   1_455  S
O167        H187   0.990       .  S
O167        H196   0.989       .  S
O168        C169   1.287       .  A
C169        C364   1.492       .  S
O170        H189   0.991       .  S
O170        H193   0.989       .  S
O171        H185   0.990       .  S
O171        H192   0.989       .  S
O172        C176   1.288       .  A
O173        C176   1.284       .  A
O174        H184   0.990       .  S
O175        H188   0.990       .  S
C176        C266   1.494       .  S
Zr199       O200   2.436       .  S
Zr199       O201   2.429       .  S
Zr199       O202   2.452       .  S
Zr199       O205   2.449       .  S
Zr199       O207   2.388       .  S
Zr199       O208   2.385       .  S
Zr199       O209   2.406       .  S
Zr199       O210   2.405       .  S
O200        H256   0.990       .  S
O200        H264   0.990       .  S
O201        C221   1.281       .  A
O202        C223   1.288       .  A
O203       Zr213   2.422       .  S
O203        C222   1.282       .  A
O204       Zr212   2.411       .  S
O204        C223   1.283       .  A
O205        C222   1.289       .  A
O206       Zr214   2.426       .  S
O206        C221   1.286       .  A
O207       Zr212   2.386       .  S
O207       Zr214   2.369       .  S
O208       Zr213   2.385       .  S
O208       Zr214   2.369       .  S
O208        H243   0.979       .  S
O209       Zr212   2.400       .  S
O209       Zr229   2.385       .  S
O209        H246   0.969       .  S
O210       Zr213   2.388       .  S
O210       Zr229   2.390       .  S
Zr211       O236   2.445       .  S
Zr211       O230   2.450       .  S
Zr211       O238   2.456       .  S
Zr211       O226   2.466       .  S
Zr211       O217   2.404       .  S
Zr211       O218   2.406       .  S
Zr211       O219   2.375       .  S
Zr211       O220   2.387       .  S
Zr212       O231   2.437       .  S
Zr212       O656   2.433   1_455  S
Zr212       O225   2.421       .  S
Zr212       O218   2.384       .  S
Zr212       O219   2.382       .  S
Zr213       O215   2.435       .  S
Zr213       O237   2.438       .  S
Zr213       O239   2.413       .  S
Zr213       O217   2.393       .  S
Zr213       O220   2.387       .  S
Zr214       O240   2.434       .  S
Zr214       O241   2.436       .  S
Zr214       O648   2.438   1_455  S
Zr214       O217   2.396       .  S
Zr214       O218   2.393       .  S
O215        H252   0.990       .  S
O216       Zr646   2.439       .  S
O216        H247   0.990       .  S
O216        H261   0.990       .  S
O218        H244   0.968       .  S
O219       Zr229   2.377       .  S
O220       Zr229   2.377       .  S
O220        H245   0.972       .  S
C221        C297   1.483       .  S
C222        C325   1.477       .  S
C223        C269   1.482       .  S
O224       Zr644   2.435       .  S
O224        H260   0.990       .  S
O225        C227   1.282       .  A
O226        C227   1.291       .  A
C227        C311   1.484       .  S
O228       Zr229   2.438       .  S
O228        H257   0.990       .  S
Zr229       O232   2.436       .  S
Zr229       O233   2.440       .  S
Zr229       O234   2.401       .  S
O230        C235   1.289       .  A
O231        H248   0.990       .  S
O231        H263   0.990       .  S
O232        H249   0.990       .  S
O233        H253   0.990       .  S
O233        H262   0.990       .  S
O234        C235   1.278       .  A
C235        C336   1.489       .  S
O236        H255   0.990       .  S
O236        H259   0.990       .  S
O237        H251   0.990       .  S
O237        H258   0.990       .  S
O238        C242   1.292       .  A
O239        C242   1.280       .  A
O240        H250   0.990       .  S
O241        H254   0.990       .  S
C242        C283   1.495       .  S
C265        C270   1.398   1_645  A
C265        C698   1.405       .  A
C265        H272   1.084       .  S
C266        C267   1.413       .  A
C266        C697   1.409       .  A
C267        C268   1.401   1_545  A
C267        N274   1.428       .  S
C268        C701   1.408       .  A
C268        H273   1.084       .  S
C269        C270   1.409       .  A
C269        C700   1.406       .  A
C270        N271   1.423       .  S
N271        O275   1.262       .  A
N271        O276   1.260   1_455  A
N274        O278   1.262       .  A
N274        O277   1.262       .  A
C279        C280   1.403       .  A
C279        C284   1.398       .  A
C279        H286   1.084       .  S
C280        C281   1.420       .  A
C281        C282   1.399       .  A
C281        N288   1.428       .  S
C282        C283   1.403       .  A
C282        H287   1.084       .  S
C283        C284   1.421       .  A
C284        N285   1.428       .  S
N285        O289   1.262       .  A
N285        O290   1.262       .  A
N288        O292   1.262       .  A
N288        O291   1.262       .  A
C293        C298   1.402   1_655  A
C293        C726   1.403       .  A
C293        H300   1.084       .  S
C294        C295   1.420       .  A
C294        C725   1.406       .  A
C295        C296   1.401       .  A
C295        N302   1.427       .  S
C296        C729   1.397       .  A
C296        H301   1.084       .  S
C297        C298   1.414       .  A
C297        C728   1.399       .  A
C298        N299   1.422       .  S
N299        O303   1.260   1_455  A
N299        O304   1.262       .  A
N302        O306   1.261       .  A
N302        O305   1.261       .  A
C307        C308   1.402       .  A
C307        C312   1.403       .  A
C307        H314   1.084       .  S
C308        C741   1.417       .  A
C309        C310   1.403       .  A
C309        C740   1.416   1_455  A
C309        N316   1.428       .  S
C310        C311   1.401       .  A
C310        H315   1.084       .  S
C311        C744   1.416   1_455  A
C312        C743   1.414       .  A
C312        N313   1.428       .  S
N313        O317   1.262       .  A
N313        O318   1.262       .  A
N316        O320   1.262       .  A
N316        O319   1.262       .  A
C321        C322   1.399       .  A
C321        C326   1.398       .  A
C321        H328   1.081       .  S
C322        C323   1.415       .  A
C323        C324   1.401       .  A
C323        N330   1.429       .  S
C324        C325   1.401       .  A
C324        H329   1.085       .  S
C325        C326   1.413       .  A
C326        N327   1.428       .  S
N327        O331   1.262       .  A
N327        O332   1.262       .  A
N330        O334   1.262       .  A
N330        O333   1.262       .  A
C335        C336   1.408       .  A
C335        C340   1.406       .  A
C335        H342   1.083       .  S
C336        C337   1.419       .  A
C337        C338   1.386       .  A
C337        N344   1.430       .  S
C338        C339   1.399       .  A
C338        H343   1.085       .  S
C339        C340   1.414       .  A
C340        N341   1.427       .  S
N341        O345   1.262       .  A
N341        O346   1.262       .  A
N344        O348   1.262       .  A
N344        O347   1.262       .  A
C349        C354   1.402       .  A
C349        C782   1.400   1_455  A
C349        H356   1.084       .  S
C350        C351   1.406       .  A
C350        C781   1.399       .  A
C351        C352   1.407       .  A
C351        N358   1.430       .  S
C352        C785   1.412       .  A
C352        H357   1.084       .  S
C353        C354   1.415       .  A
C353        C784   1.411   1_455  A
C354        N355   1.427       .  S
N355        O359   1.262       .  A
N355        O360   1.262       .  A
N358        O362   1.261       .  A
N358        O361   1.262       .  A
C363        C368   1.401       .  A
C363        C796   1.413   1_455  A
C363        H370   1.084       .  S
C364        C365   1.423       .  A
C364        C795   1.412       .  A
C365        C366   1.395       .  A
C365        N372   1.427       .  S
C366        C799   1.391       .  A
C366        H371   1.085       .  S
C367        C368   1.403       .  A
C367        C798   1.395   1_455  A
C368        N369   1.430       .  S
N369        O373   1.261       .  A
N369        O374   1.262       .  A
N372        O376   1.262       .  A
N372        O375   1.261       .  A
C377        C378   1.404       .  A
C377        C382   1.388       .  A
C377        H384   1.084       .  S
C378        C379   1.415       .  A
C379        C380   1.404       .  A
C379        N386   1.428       .  S
C380        C381   1.405       .  A
C380        H385   1.084       .  S
C381        C382   1.414       .  A
C382        N383   1.430       .  S
N383        O387   1.262       .  A
N383        O388   1.262       .  A
N386        O390   1.261       .  A
N386        O389   1.262       .  A
C391        C392   1.401       .  A
C391        C396   1.403       .  A
C391        H398   1.084       .  S
C392        C393   1.416       .  A
C393        C394   1.398       .  A
C393        N400   1.428       .  S
C394        C395   1.396       .  A
C394        H399   1.082       .  S
C395        C396   1.414       .  A
C396        N397   1.427       .  S
N397        O401   1.262       .  A
N397        O402   1.262       .  A
N400        O404   1.262       .  A
N400        O403   1.262       .  A
C405        C410   1.401   1_545  A
C405        C838   1.408   1_556  A
C405        H412   1.084       .  S
C406        C407   1.413       .  A
C406        C837   1.409   1_554  A
C407        C408   1.401   1_445  A
C407        N414   1.428       .  S
C408        C841   1.410   1_554  A
C408        H413   1.084       .  S
C409        C410   1.415       .  A
C409        C840   1.408   1_556  A
C410        N411   1.427       .  S
N411        O415   1.262       .  A
N411        O416   1.262       .  A
N414        O418   1.262       .  A
N414        O417   1.262       .  A
C419        C420   1.401       .  A
C419        C424   1.401       .  A
C419        H426   1.084       .  S
C420        C421   1.418   1_554  A
C421        C422   1.398       .  A
C421        N428   1.428       .  S
C422        C423   1.399       .  A
C422        H427   1.084       .  S
C423        C424   1.419   1_556  A
C424        N425   1.429       .  S
N425        O429   1.262   1_554  A
N425        O430   1.262       .  A
N428        O432   1.262       .  A
N428        O431   1.262       .  A
Zr433       O434   2.439       .  S
Zr433       O435   2.447       .  S
Zr433       O436   2.489       .  S
Zr433       O439   2.465       .  S
Zr433       O441   2.384       .  S
Zr433       O442   2.385       .  S
Zr433       O443   2.406   1_556  S
Zr433       O444   2.413       .  S
O434        H490   0.990       .  S
O434        H498   0.990       .  S
O435        C455   1.287       .  A
O436        C457   1.297       .  A
O437       Zr447   2.431       .  S
O437        C456   1.286       .  A
O438       Zr446   2.389       .  S
O438        C457   1.275   1_554  A
O439        C456   1.291       .  A
O440       Zr448   2.409       .  S
O440        C455   1.280       .  A
O441       Zr446   2.394   1_556  S
O441       Zr448   2.378       .  S
O442       Zr447   2.384       .  S
O442       Zr448   2.371       .  S
O442        H477   0.970       .  S
O443       Zr446   2.402       .  S
O443       Zr463   2.393       .  S
O443        H480   0.964       .  S
O444       Zr447   2.392       .  S
O444       Zr463   2.392   1_556  S
Zr445       O470   2.437       .  S
Zr445       O464   2.416       .  S
Zr445       O472   2.450       .  S
Zr445       O460   2.449       .  S
Zr445       O451   2.397   1_554  S
Zr445       O452   2.401       .  S
Zr445       O453   2.378       .  S
Zr445       O454   2.392       .  S
Zr446       O465   2.437       .  S
Zr446       O458   2.431       .  S
Zr446       O459   2.413       .  S
Zr446       O452   2.387       .  S
Zr446       O453   2.373       .  S
Zr447       O471   2.438       .  S
Zr447       O473   2.429       .  S
Zr447       O451   2.392       .  S
Zr447       O454   2.385   1_556  S
Zr448       O474   2.434       .  S
Zr448       O475   2.436       .  S
Zr448       O450   2.437       .  S
Zr448       O451   2.392       .  S
Zr448       O452   2.388   1_556  S
O449        H486   0.990       .  S
O450        H481   0.990       .  S
O450        H495   0.990       .  S
O452        H478   0.966       .  S
O453       Zr463   2.375       .  S
O454       Zr463   2.382       .  S
O454        H479   0.963       .  S
C455        C813   1.482       .  S
C456        C785   1.491       .  S
C457        C855   1.490       .  S
O458        H494   0.990       .  S
O459        C461   1.281       .  A
O460        C461   1.288       .  A
C461        C824   1.476       .  S
O462       Zr463   2.442       .  S
O462        H491   0.990       .  S
Zr463       O466   2.437       .  S
Zr463       O468   2.418       .  S
O464        C469   1.281       .  A
O465        H482   0.990       .  S
O465        H497   0.990       .  S
O466        H483   0.990       .  S
O467        H487   0.990       .  S
O467        H496   0.990       .  S
O468        C469   1.282       .  A
C469        C799   1.461       .  S
O470        H489   0.990       .  S
O470        H493   0.990       .  S
O471        H485   0.990       .  S
O471        H492   0.990       .  S
O472        C476   1.287       .  A
O473        C476   1.286   1_556  A
O474        H484   0.989       .  S
O475        H488   0.990       .  S
C476        C838   1.499       .  S
Zr499       O500   2.439       .  S
Zr499       O501   2.446       .  S
Zr499       O502   2.464       .  S
Zr499       O505   2.464       .  S
Zr499       O507   2.387       .  S
Zr499       O508   2.382       .  S
Zr499       O509   2.412   1_556  S
Zr499       O510   2.409       .  S
O500        H556   0.990       .  S
O500        H564   0.990       .  S
O501        C521   1.288       .  A
O502        C523   1.289       .  A
O503       Zr513   2.419       .  S
O503        C522   1.281       .  A
O504       Zr512   2.421       .  S
O504        C523   1.284   1_554  A
O505        C522   1.291       .  A
O506       Zr514   2.395       .  S
O506        C521   1.276       .  A
O507       Zr512   2.386   1_556  S
O507       Zr514   2.377       .  S
O508       Zr513   2.387       .  S
O508       Zr514   2.378       .  S
O508        H543   0.971       .  S
O509       Zr512   2.398       .  S
O509       Zr529   2.393       .  S
O509        H546   0.979       .  S
O510       Zr513   2.383       .  S
O510       Zr529   2.400   1_556  S
Zr511       O536   2.440       .  S
Zr511       O530   2.444       .  S
Zr511       O538   2.467       .  S
Zr511       O526   2.468       .  S
Zr511       O517   2.398   1_554  S
Zr511       O518   2.407       .  S
Zr511       O519   2.384       .  S
Zr511       O520   2.386       .  S
Zr512       O531   2.438       .  S
Zr512       O525   2.420       .  S
Zr512       O518   2.395       .  S
Zr512       O519   2.393       .  S
Zr513       O515   2.433       .  S
Zr513       O537   2.439       .  S
Zr513       O539   2.404       .  S
Zr513       O517   2.393       .  S
Zr513       O520   2.383   1_556  S
Zr514       O540   2.432       .  S
Zr514       O541   2.434       .  S
Zr514       O517   2.385       .  S
Zr514       O518   2.383   1_556  S
O515        H552   0.990       .  S
O516        H547   0.990       .  S
O516        H561   0.990       .  S
O518        H544   0.962       .  S
O519       Zr529   2.374       .  S
O520       Zr529   2.377       .  S
O520        H545   0.964       .  S
C521        C726   1.484       .  S
C522        C754   1.486       .  S
C523        C841   1.495       .  S
O524        H560   0.990       .  S
O525        C527   1.282       .  A
O526        C527   1.292       .  A
C527        C740   1.483       .  S
O528       Zr529   2.439       .  S
O528        H557   0.990       .  S
Zr529       O532   2.437       .  S
Zr529       O533   2.440       .  S
Zr529       O534   2.419       .  S
O530        C535   1.288       .  A
O531        H548   0.990       .  S
O531        H563   0.990       .  S
O532        H549   0.990       .  S
O533        H553   0.989       .  S
O533        H562   0.990       .  S
O534        C535   1.281       .  A
C535        C771   1.494       .  S
O536        H555   0.990       .  S
O536        H559   0.990       .  S
O537        H551   0.990       .  S
O537        H558   0.990       .  S
O538        C542   1.294       .  A
O539        C542   1.279   1_556  A
O540        H550   0.990       .  S
O541        H554   0.990       .  S
C542        C852   1.490       .  S
Zr565       O566   2.438       .  S
Zr565       O567   2.439       .  S
Zr565       O568   2.464       .  S
Zr565       O571   2.456       .  S
Zr565       O573   2.390       .  S
Zr565       O574   2.389       .  S
Zr565       O575   2.410       .  S
Zr565       O576   2.414       .  S
O566        H622   0.990       .  S
O566        H630   0.990       .  S
O567        C587   1.282       .  A
O568        C589   1.292       .  A
O569       Zr579   2.413       .  S
O569        C588   1.280       .  A
O570       Zr578   2.425       .  S
O570        C589   1.282       .  A
O571        C588   1.289       .  A
O572       Zr580   2.425       .  S
O572        C587   1.286       .  A
O573       Zr578   2.390       .  S
O573       Zr580   2.375       .  S
O574       Zr579   2.389       .  S
O574       Zr580   2.371       .  S
O574        H609   0.970       .  S
O575       Zr578   2.403       .  S
O575       Zr595   2.391       .  S
O575        H612   0.968       .  S
O576       Zr579   2.388       .  S
O576       Zr595   2.405       .  S
Zr577       O602   2.438       .  S
Zr577       O596   2.451       .  S
Zr577       O604   2.447       .  S
Zr577       O592   2.454       .  S
Zr577       O583   2.405       .  S
Zr577       O584   2.411       .  S
Zr577       O585   2.377       .  S
Zr577       O586   2.388       .  S
Zr578       O597   2.433       .  S
Zr578       O590   2.434       .  S
Zr578       O591   2.415       .  S
Zr578       O584   2.396       .  S
Zr578       O585   2.394       .  S
Zr579       O603   2.441       .  S
Zr579       O605   2.410       .  S
Zr579       O583   2.387       .  S
Zr579       O586   2.386       .  S
Zr580       O606   2.437       .  S
Zr580       O607   2.436       .  S
Zr580       O582   2.438       .  S
Zr580       O583   2.392       .  S
Zr580       O584   2.395       .  S
O581        H618   0.990       .  S
O582        H613   0.990       .  S
O582        H627   0.990       .  S
O584        H610   0.960       .  S
O585       Zr595   2.370       .  S
O586       Zr595   2.377       .  S
O586        H611   0.966       .  S
C587        C810   1.494       .  S
C588        C782   1.480       .  S
C589        C712   1.488       .  S
O590        H626   0.990       .  S
O591        C593   1.281       .  A
O592        C593   1.288       .  A
C593        C827   1.475       .  S
O594       Zr595   2.440       .  S
O594        H623   0.990       .  S
Zr595       O598   2.436       .  S
Zr595       O600   2.434       .  S
O596        C601   1.287       .  A
O597        H614   0.989       .  S
O597        H629   0.990       .  S
O598        H615   0.990       .  S
O599        H619   0.990       .  S
O599        H628   0.990       .  S
O600        C601   1.286       .  A
C601        C796   1.499       .  S
O602        H621   0.990       .  S
O602        H625   0.990       .  S
O603        H617   0.990       .  S
O603        H624   0.990       .  S
O604        C608   1.287       .  A
O605        C608   1.282       .  A
O606        H616   0.990       .  S
O607        H620   0.990       .  S
C608        C698   1.482       .  S
Zr631       O632   2.438       .  S
Zr631       O633   2.433       .  S
Zr631       O634   2.458       .  S
Zr631       O637   2.449       .  S
Zr631       O639   2.387       .  S
Zr631       O640   2.382       .  S
Zr631       O641   2.408       .  S
Zr631       O642   2.406       .  S
O632        H688   0.990       .  S
O632        H696   0.990       .  S
O633        C653   1.284       .  A
O634        C655   1.288       .  A
O635       Zr645   2.430       .  S
O635        C654   1.283       .  A
O636       Zr644   2.432       .  S
O636        C655   1.286       .  A
O637        C654   1.289       .  A
O638       Zr646   2.416       .  S
O638        C653   1.281       .  A
O639       Zr644   2.388       .  S
O639       Zr646   2.378       .  S
O640       Zr645   2.379       .  S
O640       Zr646   2.376       .  S
O640        H675   0.976       .  S
O641       Zr644   2.401       .  S
O641       Zr661   2.391       .  S
O641        H678   0.966       .  S
O642       Zr645   2.387       .  S
O642       Zr661   2.395       .  S
Zr643       O668   2.442       .  S
Zr643       O662   2.446       .  S
Zr643       O670   2.455       .  S
Zr643       O658   2.454       .  S
Zr643       O649   2.401       .  S
Zr643       O650   2.410       .  S
Zr643       O651   2.382       .  S
Zr643       O652   2.384       .  S
Zr644       O663   2.438       .  S
Zr644       O657   2.431       .  S
Zr644       O650   2.394       .  S
Zr644       O651   2.391       .  S
Zr645       O647   2.434       .  S
Zr645       O669   2.436       .  S
Zr645       O671   2.416       .  S
Zr645       O649   2.394       .  S
Zr645       O652   2.385       .  S
Zr646       O672   2.433       .  S
Zr646       O673   2.436       .  S
Zr646       O649   2.394       .  S
Zr646       O650   2.393       .  S
O647        H684   0.990       .  S
O648        H679   0.990       .  S
O648        H693   0.990       .  S
O650        H676   0.962       .  S
O651       Zr661   2.372       .  S
O652       Zr661   2.376       .  S
O652        H677   0.970       .  S
C653        C729   1.466       .  S
C654        C757   1.482       .  S
C655        C701   1.493       .  S
O656        H692   0.990       .  S
O657        C659   1.284       .  A
O658        C659   1.289       .  A
C659        C743   1.480       .  S
O660       Zr661   2.441       .  S
O660        H689   0.990       .  S
Zr661       O664   2.438       .  S
Zr661       O665   2.441       .  S
Zr661       O666   2.419       .  S
O662        C667   1.285       .  A
O663        H680   0.990       .  S
O663        H695   0.990       .  S
O664        H681   0.990       .  S
O665        H685   0.990       .  S
O665        H694   0.989       .  S
O666        C667   1.284       .  A
C667        C768   1.479       .  S
O668        H687   0.990       .  S
O668        H691   0.990       .  S
O669        H683   0.990       .  S
O669        H690   0.990       .  S
O670        C674   1.291       .  A
O671        C674   1.281       .  A
O672        H682   0.990       .  S
O673        H686   0.990       .  S
C674        C715   1.486       .  S
C697        C702   1.402   1_545  A
C697        H704   1.084       .  S
C698        C699   1.409       .  A
C699        C700   1.397   1_645  A
C699        N706   1.427       .  S
C700        H705   1.084       .  S
C701        C702   1.413       .  A
C702        N703   1.428       .  S
N703        O707   1.262       .  A
N703        O708   1.262       .  A
N706        O710   1.262       .  A
N706        O709   1.262   1_655  A
C711        C712   1.401       .  A
C711        C716   1.401       .  A
C711        H718   1.084       .  S
C712        C713   1.418       .  A
C713        C714   1.400       .  A
C713        N720   1.427       .  S
C714        C715   1.399       .  A
C714        H719   1.084       .  S
C715        C716   1.418       .  A
C716        N717   1.428       .  S
N717        O721   1.262       .  A
N717        O722   1.262       .  A
N720        O724   1.262       .  A
N720        O723   1.262       .  A
C725        C730   1.392       .  A
C725        H732   1.084       .  S
C726        C727   1.418   1_655  A
C727        C728   1.389       .  A
C727        N734   1.428       .  S
C728        H733   1.084       .  S
C729        C730   1.407       .  A
C730        N731   1.429       .  S
N731        O735   1.262       .  A
N731        O736   1.262       .  A
N734        O738   1.262       .  A
N734        O737   1.262   1_455  A
C739        C740   1.399       .  A
C739        C744   1.402       .  A
C739        H746   1.084       .  S
C741        C742   1.401       .  A
C741        N748   1.428       .  S
C742        C743   1.400       .  A
C742        H747   1.085       .  S
C744        N745   1.428       .  S
N745        O749   1.262       .  A
N745        O750   1.262       .  A
N748        O752   1.262       .  A
N748        O751   1.262       .  A
C753        C754   1.402       .  A
C753        C758   1.403       .  A
C753        H760   1.084       .  S
C754        C755   1.417       .  A
C755        C756   1.402       .  A
C755        N762   1.428       .  S
C756        C757   1.400       .  A
C756        H761   1.084       .  S
C757        C758   1.414       .  A
C758        N759   1.428       .  S
N759        O763   1.262       .  A
N759        O764   1.262       .  A
N762        O766   1.262       .  A
N762        O765   1.262       .  A
C767        C768   1.398       .  A
C767        C772   1.392       .  A
C767        H774   1.085       .  S
C768        C769   1.411       .  A
C769        C770   1.406       .  A
C769        N776   1.427       .  S
C770        C771   1.409       .  A
C770        H775   1.083       .  S
C771        C772   1.420       .  A
C772        N773   1.429       .  S
N773        O777   1.262       .  A
N773        O778   1.262       .  A
N776        O780   1.262       .  A
N776        O779   1.262       .  A
C781        C786   1.401       .  A
C781        H788   1.084       .  S
C782        C783   1.406       .  A
C783        C784   1.408       .  A
C783        N790   1.428       .  S
C784        H789   1.084       .  S
C785        C786   1.415       .  A
C786        N787   1.427       .  S
N787        O791   1.262       .  A
N787        O792   1.262       .  A
N790        O794   1.260       .  A
N790        O793   1.262       .  A
C795        C800   1.401       .  A
C795        H802   1.083       .  S
C796        C797   1.422       .  A
C797        C798   1.403       .  A
C797        N804   1.426       .  S
C798        H803   1.084       .  S
C799        C800   1.404       .  A
C800        N801   1.431       .  S
N801        O805   1.262       .  A
N801        O806   1.262       .  A
N804        O808   1.262       .  A
N804        O807   1.261       .  A
C809        C810   1.404       .  A
C809        C814   1.388       .  A
C809        H816   1.084       .  S
C810        C811   1.421       .  A
C811        C812   1.408       .  A
C811        N818   1.428       .  S
C812        C813   1.404       .  A
C812        H817   1.084       .  S
C813        C814   1.412       .  A
C814        N815   1.429       .  S
N815        O819   1.262       .  A
N815        O820   1.262       .  A
N818        O822   1.261       .  A
N818        O821   1.262       .  A
C823        C824   1.401       .  A
C823        C828   1.402       .  A
C823        H830   1.084       .  S
C824        C825   1.413       .  A
C825        C826   1.397       .  A
C825        N832   1.428       .  S
C826        C827   1.397       .  A
C826        H831   1.081       .  S
C827        C828   1.412       .  A
C828        N829   1.427       .  S
N829        O833   1.262       .  A
N829        O834   1.262       .  A
N832        O836   1.262       .  A
N832        O835   1.262       .  A
C837        C842   1.400   1_445  A
C837        H844   1.084       .  S
C838        C839   1.416       .  A
C839        C840   1.401   1_545  A
C839        N846   1.427       .  S
C840        H845   1.084       .  S
C841        C842   1.413       .  A
C842        N843   1.427       .  S
N843        O847   1.262       .  A
N843        O848   1.262   1_655  A
N846        O850   1.262       .  A
N846        O849   1.262       .  A
C851        C852   1.401       .  A
C851        C856   1.402       .  A
C851        H858   1.084       .  S
C852        C853   1.419   1_554  A
C853        C854   1.399       .  A
C853        N860   1.428       .  S
C854        C855   1.399       .  A
C854        H859   1.084       .  S
C855        C856   1.423   1_556  A
C856        N857   1.429       .  S
N857        O861   1.262       .  A
N857        O862   1.262       .  A
N860        O864   1.262       .  A
N860        O863   1.262       .  A
