geometry optimzed in LAMMPS
_audit_creation_date              2020-11-30 
_audit_creation_method            'lammps2cif' 
_symmetry_space_group_name_H-M    'P1' 
_symmetry_Int_Tables_number       1 
_symmetry_cell_setting            triclinic 
loop_ 
_symmetry_equiv_pos_as_xyz 
  x,y,z 
_cell_length_a                    26.53328897 
_cell_length_b                    26.122171690150196 
_cell_length_c                    34.47990117353565 
_cell_angle_alpha                 90.09791793734416 
_cell_angle_beta                  88.6928902217521 
_cell_angle_gamma                 89.8732488312959 
loop_ 
_atom_site_label 
_atom_site_type_symbol 
_atom_site_fract_x 
_atom_site_fract_y 
_atom_site_fract_z 
_atom_site_charge 
C1          C  0.85495865  0.36460629  0.05398948     0.30900
C2          C  0.86103798  0.35809917  0.47396400     0.30900
C3          C  0.80478625  0.37921769  0.03494577    -0.05300
C4          C  0.89342301  0.39856951  0.03254439    -0.06000
C5          C  0.86479691  0.31155289  0.03590844    -0.05900
C6          C  0.80988371  0.37410794  0.49239909    -0.05300
C7          C  0.89791165  0.39531066  0.49236368    -0.06000
C8          C  0.87145576  0.30758975  0.49573758    -0.05900
C9          C  0.76230996  0.38493412  0.47929323    -0.31300
N10         N  0.72767260  0.39910303  0.01545842     0.15200
C11         C  0.75627419  0.39149145  0.04701132    -0.31300
H12         H  0.74197474  0.39437493  0.07651888     0.17100
C13         C  0.93508780  0.42798547  0.47927109    -0.30300
N14         N  0.95581503  0.45117915  0.51042399     0.13900
C15         C  0.92983142  0.43316920  0.04279237    -0.30300
C16         C  0.88385552  0.25760442  0.48658643    -0.30600
N17         N  0.88457916  0.23171377  0.01939567     0.14400
H18         H  0.88731345  0.24176633  0.45773295     0.17100
C19         C  0.87531536  0.26337922  0.04975221    -0.30600
H20         H  0.87823981  0.25216291  0.07979712     0.17100
H21         H  0.93884374  0.44405895  0.07212312     0.17100
H22         H  0.75051775  0.38524002  0.44947147     0.17100
H23         H  0.94568434  0.43479336  0.44923781     0.17100
C24         C  0.85899841  0.35767959  0.22425426     0.30900
C25         C  0.86281166  0.35609580  0.30368130     0.30900
C26         C  0.87580062  0.30629167  0.24245096    -0.05300
C27         C  0.89423295  0.39650187  0.24284401    -0.06000
C28         C  0.80837138  0.36763151  0.24630107    -0.05900
C29         C  0.87735222  0.30575448  0.28293343    -0.05300
C30         C  0.89616777  0.39557610  0.28296467    -0.06000
C31         C  0.81056028  0.36661924  0.28669350    -0.05900
C32         C  0.88919613  0.25661555  0.29383556    -0.31300
N33         N  0.89721343  0.22775992  0.26171319     0.15200
C34         C  0.88816070  0.25722723  0.23002917    -0.31300
H35         H  0.89019658  0.24405233  0.20031871     0.17100
C36         C  0.93002384  0.43229855  0.29385241    -0.30300
N37         N  0.94873515  0.45555242  0.26136816     0.13900
C38         C  0.92686635  0.43405386  0.23000875    -0.30300
C39         C  0.76301861  0.37819926  0.30111675    -0.30600
N40         N  0.73238107  0.38776239  0.27108182     0.14400
H41         H  0.75160010  0.38149090  0.33133764     0.17100
C42         C  0.75916456  0.37989139  0.23744876    -0.30600
H43         H  0.74408274  0.38346907  0.20878181     0.17100
H44         H  0.93501593  0.44405121  0.20006901     0.17100
H45         H  0.89139745  0.24190307  0.32301499     0.17100
H46         H  0.94024692  0.44140955  0.32327655     0.17100
C47         C  0.34051165  0.18643934  0.03236317     0.30900
C48         C  0.35328267  0.18783776  0.45220788     0.30900
C49         C  0.35154753  0.24048450  0.01634494    -0.05300
C50         C  0.38223014  0.15409359  0.01323365    -0.06000
C51         C  0.29366145  0.17116751  0.00912859    -0.05900
C52         C  0.36606431  0.23798899  0.47360543    -0.05300
C53         C  0.38775196  0.14918647  0.47214040    -0.06000
C54         C  0.30145052  0.17409926  0.46936037    -0.05900
C55         C  0.39001494  0.28350554  0.46448432    -0.31300
N56         N  0.39721176  0.31054975  0.49758253     0.15200
C57         C  0.36911651  0.28522884  0.03233076    -0.31300
H58         H  0.37107665  0.29416559  0.06290292     0.17100
C59         C  0.42269965  0.11282091  0.46075079    -0.30300
N60         N  0.43915718  0.08827305  0.49277946     0.13900
C61         C  0.41750151  0.11990504  0.02590562    -0.30300
C62         C  0.25696367  0.15807925  0.45384432    -0.30600
N63         N  0.22444270  0.14633587  0.48319835     0.14400
H64         H  0.24954204  0.15296153  0.42333010     0.17100
C65         C  0.24465377  0.15524487  0.01605775    -0.30600
H66         H  0.22654314  0.15098197  0.04410780     0.17100
H67         H  0.42302382  0.10854801  0.05567372     0.17100
H68         H  0.40399863  0.29500558  0.43610070     0.17100
H69         H  0.43578205  0.10507348  0.43137959     0.17100
C70         C  0.34574494  0.18466713  0.28161621     0.30900
C71         C  0.34195938  0.18164880  0.20225850     0.30900
C72         C  0.35740620  0.23543369  0.26042367    -0.05300
C73         C  0.38301538  0.14802649  0.26109696    -0.06000
C74         C  0.29504052  0.16871801  0.26473374    -0.05900
C75         C  0.35453655  0.23439655  0.22003037    -0.05300
C76         C  0.38070602  0.14625686  0.22094348    -0.06000
C77         C  0.29256899  0.16802923  0.22442393    -0.05900
C78         C  0.37608881  0.27937748  0.20647011    -0.31300
N79         N  0.39413896  0.30605668  0.23691067     0.15200
C80         C  0.38423400  0.27872399  0.26966804    -0.31300
H81         H  0.39902340  0.28713868  0.29785937     0.17100
C82         C  0.41691243  0.11215420  0.20794526    -0.30300
N83         N  0.44137810  0.09328939  0.23911050     0.13900
C84         C  0.42110811  0.11541085  0.27163309    -0.30300
C85         C  0.24364407  0.15509192  0.21573546    -0.30600
N86         N  0.21782343  0.14443804  0.24919597     0.14400
H87         H  0.22740227  0.15441432  0.18736724     0.17100
C88         C  0.24867107  0.15351776  0.27933466    -0.30600
H89         H  0.23848810  0.14816344  0.30963998     0.17100
H90         H  0.43293905  0.10799207  0.30088744     0.17100
H91         H  0.38140489  0.29066130  0.17651057     0.17100
H92         H  0.42527919  0.10257866  0.17794521     0.17100
C93         C  0.68925482  0.85255899  0.02570003     0.30900
C94         C  0.68715978  0.84214986  0.44638237     0.30900
C95         C  0.67442838  0.80195665  0.00570837    -0.05300
C96         C  0.65244165  0.89117097  0.00863611    -0.06000
C97         C  0.73925917  0.86573720  0.00409224    -0.05900
C98         C  0.67739137  0.79124815  0.46830257    -0.05300
C99         C  0.64961727  0.87835281  0.46726623    -0.06000
C100        C  0.73775055  0.85950788  0.46217964    -0.05900
C101        C  0.65472919  0.74496091  0.46003502    -0.31300
N102        N  0.64681706  0.71841099  0.49349495     0.15200
C103        C  0.65960851  0.75333913  0.01677594    -0.31300
H104        H  0.65843779  0.73832234  0.04593455     0.17100
C105        C  0.61058406  0.91018507  0.45710904    -0.30300
N106        N  0.59072770  0.93245287  0.48978957     0.13900
C107        C  0.61887049  0.92688339  0.02316013    -0.30300
C108        C  0.78212604  0.87743656  0.44579142    -0.26200
N109        N  0.81353327  0.89018910  0.47461477     0.14400
H110        H  0.79016455  0.88290731  0.41516062     0.17100
C111        C  0.78754231  0.88076637  0.01284775    -0.30600
H112        H  0.80255907  0.88376720  0.04159478     0.17100
H113        H  0.61211436  0.93638828  0.05340465     0.17100
H114        H  0.64157990  0.73280822  0.43201065     0.17100
H115        H  0.59801265  0.91699914  0.42796223     0.17100
C116        C  0.68932809  0.84553430  0.27511953     0.30900
C117        C  0.68796857  0.84645877  0.19552463     0.30900
C118        C  0.67245153  0.79530161  0.25539639    -0.05300
C119        C  0.65329121  0.88451829  0.25665640    -0.06000
C120        C  0.73995572  0.85719498  0.25411153    -0.05900
C121        C  0.67295442  0.79536847  0.21489750    -0.05300
C122        C  0.65332207  0.88497792  0.21633673    -0.06000
C123        C  0.73923514  0.85656889  0.21373029    -0.05900
C124        C  0.65533166  0.74822660  0.20326428    -0.31300
N125        N  0.64122943  0.72097989  0.23507452     0.15200
C126        C  0.65090225  0.74959542  0.26704015    -0.31300
H127        H  0.64071363  0.73924353  0.29647696     0.17100
C128        C  0.61801602  0.92001155  0.20496196    -0.30300
N129        N  0.59595704  0.94090694  0.23718536     0.13900
C130        C  0.61676646  0.91906639  0.26887813    -0.30300
C131        C  0.78686042  0.86879645  0.20035843    -0.30600
N132        N  0.81572041  0.88011282  0.23099008     0.14400
H133        H  0.79959534  0.87163912  0.17043533     0.17100
C134        C  0.78774254  0.87259858  0.26418512    -0.30600
H135        H  0.80024424  0.87954155  0.29335506     0.17100
H136        H  0.60483709  0.92661193  0.29853628     0.17100
H137        H  0.65162253  0.73462217  0.17384348     0.17100
H138        H  0.60904619  0.92942038  0.17535360     0.17100
C139        C  0.20355118  0.69819498  0.46859155     0.30900
C140        C  0.20238817  0.69411763  0.04703931     0.30900
C141        C  0.18004454  0.74455108  0.49001816    -0.05300
C142        C  0.17452574  0.65276178  0.48706487    -0.06000
C143        C  0.25573595  0.69279325  0.48730784    -0.05900
C144        C  0.17780661  0.74280650  0.03086169    -0.05300
C145        C  0.17188289  0.65220061  0.02669168    -0.06000
C146        C  0.25343166  0.69223915  0.02511285    -0.05900
C147        C  0.15442423  0.78550250  0.04649606    -0.31300
N148        N  0.14086625  0.81679684  0.01730822     0.15200
C149        C  0.15313754  0.78787768  0.48046924    -0.31300
H150        H  0.14463423  0.80002305  0.45137835     0.17100
C151        C  0.13419753  0.61867778  0.03780995    -0.30300
N152        N  0.11225733  0.59917748  0.00576253     0.13900
C153        C  0.13890610  0.61807862  0.47485779    -0.30300
C154        C  0.30029203  0.67282532  0.03366946    -0.30600
N155        N  0.32772020  0.66735051  0.00005125     0.14400
H156        H  0.31170616  0.66013013  0.06197826     0.17100
C157        C  0.29726138  0.66401463  0.47555325    -0.30600
H158        H  0.30536184  0.65026087  0.44646796     0.17100
H159        H  0.12856943  0.61071637  0.44522547     0.17100
H160        H  0.14710693  0.79324511  0.07694704     0.17100
H161        H  0.12078313  0.61195817  0.06717501     0.17100
C162        C  0.20114796  0.69550402  0.29747547     0.30900
C163        C  0.20010687  0.69696016  0.21802574     0.30900
C164        C  0.24819784  0.67330732  0.27640599    -0.05300
C165        C  0.15868802  0.66460516  0.27851349    -0.06000
C166        C  0.19574742  0.74867027  0.27895992    -0.05900
C167        C  0.24736780  0.67464339  0.23617192    -0.05300
C168        C  0.15763156  0.66608674  0.23810614    -0.06000
C169        C  0.19460097  0.74960841  0.23818103    -0.05900
C170        C  0.29020741  0.65073832  0.22223932    -0.31300
N171        N  0.31720552  0.63435933  0.25271546     0.15200
C172        C  0.29167640  0.64741675  0.28604976    -0.31300
H173        H  0.30285282  0.63754423  0.31503501     0.17100
C174        C  0.11988905  0.63350133  0.22677767    -0.30300
N175        N  0.09940964  0.61089744  0.25887546     0.13900
C176        C  0.12322319  0.62920386  0.29047099    -0.30300
C177        C  0.16540241  0.79158541  0.22887974    -0.30600
N178        N  0.15183107  0.81748054  0.26173580     0.14400
H179        H  0.15096512  0.79917401  0.20041810     0.17100
C180        C  0.16912953  0.79086236  0.29224801    -0.30600
H181        H  0.15860087  0.79866610  0.32220915     0.17100
H182        H  0.11630636  0.61626526  0.31987433     0.17100
H183        H  0.30045113  0.64445973  0.19202574     0.17100
H184        H  0.10971340  0.62476843  0.19730583     0.17100
O185        O  0.96874823  0.08946874  0.03052699    -0.72000
O186        O  0.05545524  0.95959364  0.03064478    -0.73000
O187        O  0.07376902  0.06714142  0.03247097    -0.61600
O188        O  0.95099701  0.98238471  0.03285360    -0.70000
O189        O  0.95289609  0.98135726  0.46273753    -0.69600
O190        O  0.08331398  0.06456731  0.46764697    -0.60800
O191        O  0.05812156  0.95942795  0.46208092    -0.73300
O192        O  0.97849380  0.08755774  0.46457991    -0.72100
Cu193      Cu  0.01225106  0.02472531  0.03390875     1.04600
Cu194      Cu  0.01829962  0.02339119  0.46197927     1.04300
C195        C  0.95683240  0.10819958  0.99753640     0.94200
C196        C  0.06841340  0.94029724  0.99760029     0.93300
C197        C  0.09565807  0.08109154  0.00106433     0.85500
C198        C  0.93134019  0.96791245  0.00143894     0.91800
O199        O  0.06074218  0.95588828  0.26900163    -0.72000
O200        O  0.97427646  0.08409920  0.26699272    -0.73000
O201        O  0.95573931  0.97755494  0.27678349    -0.61600
O202        O  0.07938435  0.06291545  0.26166150    -0.70000
O203        O  0.07342886  0.05684874  0.19773209    -0.69600
O204        O  0.94914950  0.96907015  0.21304008    -0.60800
O205        O  0.96790807  0.07577906  0.20323270    -0.73300
O206        O  0.05413282  0.95084992  0.20504113    -0.72100
Cu207      Cu  0.01768252  0.02038819  0.27087538     1.04600
Cu208      Cu  0.01083412  0.01287532  0.20257550     1.04300
C209        C  0.07111729  0.93349517  0.23667585     0.94200
C210        C  0.95791744  0.10020460  0.23448540     0.93300
C211        C  0.93306661  0.95953241  0.24760821     0.85500
C212        C  0.09624114  0.07322456  0.22761297     0.91800
O213        O  0.56327839  0.57820306  0.49910196    -0.72000
O214        O  0.48126802  0.44966188  0.50069515    -0.73000
O215        O  0.45805100  0.55604548  0.50085741    -0.61600
O216        O  0.58668769  0.47144332  0.50132910    -0.70000
O217        O  0.58435399  0.47126428  0.02570514    -0.69600
O218        O  0.45977003  0.55557630  0.04170292    -0.60800
O219        O  0.47884074  0.44998789  0.02524836    -0.73300
O220        O  0.56476988  0.57686463  0.04023516    -0.72100
Cu221      Cu  0.52234344  0.51375067  0.49821195     1.04600
Cu222      Cu  0.52193180  0.51279145  0.03545581     1.04300
C223        C  0.57681252  0.60368271  0.01039840     0.94200
C224        C  0.46556129  0.43802424  0.99087063     0.93300
C225        C  0.43936649  0.57746780  0.01300202     0.85500
C226        C  0.60444737  0.46599454  0.99192334     0.91800
O227        O  0.46301663  0.54730898  0.30216647    -0.72000
O228        O  0.59163234  0.46680456  0.28712150    -0.73000
O229        O  0.56665349  0.57239159  0.29520459    -0.61600
O230        O  0.48752957  0.44240646  0.29449561    -0.70000
O231        O  0.48087491  0.44663190  0.23051310    -0.69600
O232        O  0.55940827  0.57898302  0.23140067    -0.60800
O233        O  0.58505736  0.47349672  0.22328726    -0.73300
O234        O  0.45571650  0.55207672  0.23828686    -0.72100
Cu235      Cu  0.52752586  0.50696401  0.29690834     1.04600
Cu236      Cu  0.52007602  0.51297293  0.22858624     1.04300
C237        C  0.43895213  0.56211694  0.27253788     0.94200
C238        C  0.60876321  0.45770273  0.25280248     0.93300
C239        C  0.57513991  0.59655380  0.26361126     0.85500
C240        C  0.47132961  0.42415875  0.26278894     0.91800
C241        C  0.36394416  0.60653421  0.24821845    -0.15500
C242        C  0.39133296  0.59086483  0.27833061    -0.30700
H243        H  0.37745073  0.59812775  0.21888141     0.13500
H244        H  0.37883529  0.59891849  0.30786857     0.14100
C245        C  0.11982009  0.86210201  0.26537815    -0.15500
C246        C  0.10323577  0.88741851  0.23430721    -0.30700
H247        H  0.10946929  0.87583963  0.29426158     0.13500
H248        H  0.11337149  0.87418863  0.20536805     0.14100
C249        C  0.15697855  0.69806285  0.40472068    -0.12400
C250        C  0.20269818  0.70214442  0.42425223     0.09700
C251        C  0.24658780  0.71195290  0.40170429    -0.12400
C252        C  0.24598717  0.70959998  0.36119064    -0.12400
C253        C  0.20150117  0.69757130  0.34183226     0.09700
C254        C  0.15633698  0.69614958  0.36414642    -0.12400
H255        H  0.12159856  0.69605133  0.42088433     0.13700
H256        H  0.28148836  0.72260023  0.41501001     0.13700
H257        H  0.28040822  0.71789520  0.34503653     0.13700
H258        H  0.12019492  0.69447997  0.35040942     0.13700
C259        C  0.22084438  0.73698548  0.11151518    -0.12400
C260        C  0.20644399  0.69273069  0.09125652     0.09700
C261        C  0.19847433  0.64776643  0.11288445    -0.12400
C262        C  0.19712395  0.64917137  0.15350042    -0.12400
C263        C  0.20303711  0.69562743  0.17366341     0.09700
C264        C  0.21829536  0.73875027  0.15205656    -0.12400
H265        H  0.23284464  0.77092919  0.09592516     0.13700
H266        H  0.19433474  0.61119659  0.09870203     0.13700
H267        H  0.19153536  0.61371155  0.16916374     0.13700
H268        H  0.22903075  0.77382756  0.16632023     0.13700
C269        C  0.37498876  0.64080305  0.99397900    -0.15500
C270        C  0.39410353  0.60921758  0.02061888    -0.30700
H271        H  0.38117875  0.60482914  0.47559628     0.13500
H272        H  0.37585705  0.60562533  0.04891882     0.14100
C273        C  0.09747993  0.89234521  0.99353782    -0.15500
C274        C  0.11445684  0.86472892  0.02326178    -0.30700
H275        H  0.11455352  0.88027931  0.46064545     0.13500
H276        H  0.10714032  0.87800978  0.05275218     0.14100
C277        C  0.61628103  0.67202397  0.23334502    -0.15500
C278        C  0.60280839  0.64543938  0.26526883    -0.30700
H279        H  0.60764768  0.65654466  0.20497716     0.13500
H280        H  0.61192646  0.65966503  0.29379588     0.14100
C281        C  0.86472904  0.90315891  0.22615247    -0.15500
C282        C  0.88726954  0.92863162  0.25470096    -0.30700
H283        H  0.88177349  0.90378878  0.19717998     0.13500
H284        H  0.87089602  0.92872089  0.28379817     0.14100
C285        C  0.68415292  0.88911178  0.38179285    -0.12400
C286        C  0.68733032  0.84241122  0.40201429     0.09700
C287        C  0.70024859  0.79842696  0.38038883    -0.12400
C288        C  0.70282851  0.79988431  0.33980332    -0.12400
C289        C  0.69155743  0.84505720  0.31948320     0.09700
C290        C  0.68625322  0.89042814  0.34119326    -0.12400
H291        H  0.68069471  0.92494711  0.39740963     0.13700
H292        H  0.71009092  0.76313007  0.39464990     0.13700
H293        H  0.71440667  0.76555891  0.32447464     0.13700
H294        H  0.68406403  0.92714030  0.32690438     0.13700
C295        C  0.71550718  0.88863919  0.09080150    -0.12400
C296        C  0.68745318  0.85306864  0.06975337     0.09700
C297        C  0.65018639  0.82524324  0.09028705    -0.12400
C298        C  0.64957949  0.82373310  0.13067443    -0.12400
C299        C  0.68576343  0.85062845  0.15156103     0.09700
C300        C  0.71411868  0.88787625  0.13128779    -0.12400
H301        H  0.73741243  0.91793294  0.07622950     0.13700
H302        H  0.62052493  0.80563395  0.07537270     0.13700
H303        H  0.61965506  0.80295333  0.14530872     0.13700
H304        H  0.73485645  0.91686027  0.14656670     0.13700
C305        C  0.62169267  0.67783253  0.98286332    -0.15500
C306        C  0.60685399  0.65089764  0.01445581    -0.30700
H307        H  0.60927652  0.65250113  0.46864357     0.13500
H308        H  0.61483462  0.66432708  0.04343130     0.14100
C309        C  0.86126269  0.91739290  0.97469387    -0.15500
C310        C  0.88522536  0.93707320  0.00499580    -0.30700
H311        H  0.87680218  0.92314355  0.94559292     0.13500
H312        H  0.86760871  0.93734905  0.52695417     0.14100
C313        C  0.51589915  0.05277867  0.26826199    -0.12400
C314        C  0.48115772  0.05556224  0.23811647     0.09700
C315        C  0.48522978  0.02012030  0.20747345    -0.12400
C316        C  0.52279306  0.98256915  0.20717478    -0.12400
C317        C  0.55709742  0.97948929  0.23755351     0.09700
C318        C  0.55331434  0.01509325  0.26802839    -0.12400
H319        H  0.51459078  0.08003553  0.29190269     0.13700
H320        H  0.45871386  0.02059468  0.18410495     0.13700
H321        H  0.52434322  0.95530338  0.18352367     0.13700
H322        H  0.57981853  0.01430927  0.29142040     0.13700
C323        C  0.44104017  0.37696490  0.26477806    -0.15500
C324        C  0.42337858  0.35251779  0.23350478    -0.30700
H325        H  0.43305774  0.36238100  0.29362827     0.13500
H326        H  0.43133421  0.36791094  0.20475479     0.14100
C327        C  0.16811052  0.12241975  0.25302664    -0.15500
C328        C  0.14334142  0.10285361  0.22258429    -0.30700
H329        H  0.15192606  0.11818236  0.28207465     0.13500
H330        H  0.15899095  0.10593741  0.19338533     0.14100
C331        C  0.47936960  0.01268041  0.46165287    -0.12400
C332        C  0.47561695  0.04733222  0.49283483     0.09700
C333        C  0.48490301  0.02783153  0.02459742    -0.12400
C334        C  0.52233391  0.99028235  0.02435246    -0.12400
C335        C  0.55066510  0.97008249  0.49133746     0.09700
C336        C  0.51631763  0.97438271  0.46097062    -0.12400
H337        H  0.45357094  0.01508433  0.43784968     0.13700
H338        H  0.45561907  0.02646505  0.04691327     0.13700
H339        H  0.52139243  0.96085668  0.04642556     0.13700
H340        H  0.51782504  0.94819271  0.43664749     0.13700
C341        C  0.34228560  0.23229768  0.38720197    -0.12400
C342        C  0.35360399  0.18762668  0.40794869     0.09700
C343        C  0.35422614  0.14092055  0.38740737    -0.12400
C344        C  0.35081461  0.13993616  0.34700519    -0.12400
C345        C  0.34637776  0.18560034  0.32588542     0.09700
C346        C  0.33836054  0.23122715  0.34690368    -0.12400
H347        H  0.33407958  0.26788640  0.40205233     0.13700
H348        H  0.35600739  0.10482368  0.40261556     0.13700
H349        H  0.35129976  0.10329805  0.33231022     0.13700
H350        H  0.32739910  0.26610165  0.33255824     0.13700
C351        C  0.30799248  0.14951092  0.09721323    -0.12400
C352        C  0.34137640  0.18126531  0.07632348     0.09700
C353        C  0.38216671  0.20200884  0.09648690    -0.12400
C354        C  0.38313219  0.20039119  0.13681323    -0.12400
C355        C  0.34331305  0.17801773  0.15814475     0.09700
C356        C  0.30941610  0.14740763  0.13763321    -0.12400
H357        H  0.28287311  0.12390504  0.08275527     0.13700
H358        H  0.41358647  0.21949646  0.08101548     0.13700
H359        H  0.41512395  0.21668963  0.15123581     0.13700
H360        H  0.28575035  0.11975070  0.15222425     0.13700
C361        C  0.43661738  0.38185624  0.53250650    -0.15500
C362        C  0.42422291  0.35846416  0.49905025    -0.30700
H363        H  0.42556259  0.36558220  0.56029841     0.13500
H364        H  0.42267075  0.37196289  0.04149360     0.14100
C365        C  0.17592481  0.12296911  0.47719836    -0.15500
C366        C  0.14891037  0.10187787  0.50632976    -0.30700
H367        H  0.16217503  0.12024803  0.44781099     0.13500
H368        H  0.15217929  0.12061735  0.03428338     0.14100
C369        C  0.98676750  0.53295254  0.23182671    -0.12400
C370        C  0.98678528  0.49471570  0.26043450     0.09700
C371        C  0.02473656  0.49501804  0.28815332    -0.12400
C372        C  0.06170218  0.53292527  0.28750911    -0.12400
C373        C  0.06147231  0.57154732  0.25920535     0.09700
C374        C  0.02375005  0.57104669  0.23123857    -0.12400
H375        H  0.95767745  0.53383583  0.21033355     0.13700
H376        H  0.02628341  0.46540548  0.31000420     0.13700
H377        H  0.09092306  0.53154628  0.30886701     0.13700
H378        H  0.02241522  0.60058661  0.20931699     0.13700
C379        C  0.91719686  0.17646125  0.26354054    -0.15500
C380        C  0.92892153  0.14843484  0.23198155    -0.30700
H381        H  0.92631679  0.16141104  0.29191824     0.13500
H382        H  0.91979994  0.16229597  0.20335363     0.14100
C383        C  0.68234992  0.40898220  0.27600105    -0.15500
C384        C  0.65686356  0.42980897  0.24660261    -0.30700
H385        H  0.66637251  0.41143569  0.30526594     0.13500
H386        H  0.67223598  0.42826164  0.21722686     0.14100
C387        C  0.02648109  0.49282106  0.03891443    -0.12400
C388        C  0.99241104  0.48943341  0.00842789     0.09700
C389        C  0.99910285  0.52571400  0.53842649    -0.12400
C390        C  0.03760616  0.56200030  0.53724114    -0.12400
C391        C  0.07181004  0.56210448  0.00619120     0.09700
C392        C  0.06563006  0.52845844  0.03775058    -0.12400
H393        H  0.02349794  0.46722546  0.06348295     0.13700
H394        H  0.97167465  0.52713827  0.56210931     0.13700
H395        H  0.03863535  0.59031605  0.56011747     0.13700
H396        H  0.09159545  0.52905222  0.06148371     0.13700
C397        C  0.89856635  0.32716296  0.40898911    -0.12400
C398        C  0.86449514  0.35866397  0.42980180     0.09700
C399        C  0.83978858  0.39721500  0.40900571    -0.12400
C400        C  0.84041315  0.39690737  0.36858559    -0.12400
C401        C  0.86623817  0.35839951  0.34774961     0.09700
C402        C  0.89969554  0.32731709  0.36841247    -0.12400
H403        H  0.92556713  0.30370582  0.42379179     0.13700
H404        H  0.82010430  0.42802121  0.42389354     0.13700
H405        H  0.82072100  0.42705004  0.35365864     0.13700
H406        H  0.92804203  0.30447378  0.35358177     0.13700
C407        C  0.89677866  0.34002699  0.11707395    -0.12400
C408        C  0.85860836  0.36710930  0.09811183     0.09700
C409        C  0.82799730  0.39985525  0.12083142    -0.12400
C410        C  0.82879353  0.39753719  0.16130554    -0.12400
C411        C  0.85943130  0.36169209  0.18012848     0.09700
C412        C  0.89680285  0.33678160  0.15751062    -0.12400
H413        H  0.92642224  0.32074790  0.10064115     0.13700
H414        H  0.80485258  0.42869346  0.10765762     0.13700
H415        H  0.80633619  0.42488733  0.17766327     0.13700
H416        H  0.92662488  0.31540699  0.17094855     0.13700
C417        C  0.90665506  0.18149708  0.02390698    -0.15500
C418        C  0.92627983  0.15518416  0.99377557    -0.30700
H419        H  0.91144360  0.16674148  0.05306186     0.13500
H420        H  0.93411035  0.17318478  0.46500889     0.14100
C421        C  0.67669673  0.41833792  0.01778840    -0.15500
C422        C  0.65271709  0.43792207  0.98708453    -0.30700
H423        H  0.66654458  0.42121291  0.47746376     0.13500
H424        H  0.67018633  0.43668167  0.95836458     0.14100
C425        C  0.85754477  0.36420670  0.55333593     0.30900
C426        C  0.85494988  0.36020720  0.97437007     0.30900
C427        C  0.80779917  0.37734562  0.53280160    -0.05300
C428        C  0.89614486  0.39846379  0.53244815    -0.06000
C429        C  0.86966827  0.31083366  0.53615647    -0.05900
C430        C  0.80478667  0.37712780  0.99442415    -0.05300
C431        C  0.89332758  0.39658255  0.99234351    -0.06000
C432        C  0.86539533  0.30888638  0.99548288    -0.05900
C433        C  0.75641719  0.38912245  0.98321508    -0.31300
N434        N  0.73155673  0.39577265  0.51008204     0.15200
C435        C  0.75850709  0.38983851  0.54297226    -0.31300
H436        H  0.74328500  0.39370591  0.57210331     0.17100
C437        C  0.92973199  0.43018718  0.97892452    -0.30300
N438        N  0.95198015  0.45240907  0.00992232     0.13900
C439        C  0.93216748  0.43322206  0.54308425    -0.30300
C440        C  0.87716005  0.25856882  0.98605457    -0.30600
N441        N  0.89163924  0.23122946  0.51999402     0.14400
H442        H  0.88097499  0.24300299  0.95713123     0.17100
C443        C  0.88157080  0.26298948  0.55030307    -0.30600
H444        H  0.88459779  0.25216347  0.58042440     0.17100
H445        H  0.94089636  0.44400356  0.57249100     0.17100
H446        H  0.74284228  0.38961482  0.95391015     0.17100
H447        H  0.93962927  0.43732415  0.94880597     0.17100
C448        C  0.85682521  0.36508561  0.72338417     0.30900
C449        C  0.85549811  0.36006180  0.80297036     0.30900
C450        C  0.87144147  0.31291641  0.74084196    -0.05300
C451        C  0.89131353  0.40249695  0.74423102    -0.06000
C452        C  0.80518170  0.37463905  0.74359648    -0.05900
C453        C  0.87082744  0.31011817  0.78129483    -0.05300
C454        C  0.89077749  0.39995020  0.78439957    -0.06000
C455        C  0.80443905  0.37251741  0.78408758    -0.05900
C456        C  0.88339170  0.26018428  0.79048660    -0.31300
N457        N  0.89321039  0.23360967  0.75727728     0.15200
C458        C  0.88450939  0.26503670  0.72680481    -0.31300
H459        H  0.88724461  0.25388241  0.69666588     0.17100
C460        C  0.92351096  0.43680912  0.79730102    -0.30300
N461        N  0.94373769  0.46171397  0.76600167     0.13900
C462        C  0.92412496  0.44085960  0.73344686    -0.30300
C463        C  0.75584972  0.38474671  0.79622644    -0.30600
N464        N  0.72770429  0.39464820  0.76465445     0.14400
H465        H  0.74206091  0.38809860  0.82589032     0.17100
C466        C  0.75699301  0.38676421  0.73242873    -0.30600
H467        H  0.74424669  0.39044888  0.70310204     0.17100
H468        H  0.93337976  0.45225815  0.70398936     0.17100
H469        H  0.88554958  0.24378707  0.81915715     0.17100
H470        H  0.93130449  0.44533978  0.82729069     0.17100
C471        C  0.34562929  0.18437962  0.53183053     0.30900
C472        C  0.35083474  0.19354464  0.95339216     0.30900
C473        C  0.36098551  0.23652329  0.51395210    -0.05300
C474        C  0.38373010  0.14736259  0.51242587    -0.06000
C475        C  0.29659473  0.17221707  0.50971958    -0.05900
C476        C  0.35806438  0.24424068  0.97608528    -0.05300
C477        C  0.38793114  0.15783694  0.97334473    -0.06000
C478        C  0.29965488  0.17439145  0.96897454    -0.05900
C479        C  0.38356476  0.28984332  0.96943358    -0.31300
N480        N  0.38894197  0.31495434  0.00379371     0.15200
C481        C  0.37877044  0.28259083  0.52784944    -0.31300
H482        H  0.38004517  0.29396892  0.55792129     0.17100
C483        C  0.42722244  0.12619286  0.96246507    -0.30300
N484        N  0.44477742  0.10292033  0.99471184     0.13900
C485        C  0.41572206  0.10930502  0.52452358    -0.30300
C486        C  0.25548841  0.15848003  0.95263514    -0.30600
N487        N  0.22212369  0.14647117  0.98149230     0.14400
H488        H  0.24832937  0.15519419  0.92194453     0.17100
C489        C  0.24761444  0.15598532  0.51741512    -0.30600
H490        H  0.23005586  0.15121458  0.54565271     0.17100
H491        H  0.42072988  0.09714332  0.55417970     0.17100
H492        H  0.40053157  0.30156202  0.94208387     0.17100
H493        H  0.44136620  0.11979530  0.93319410     0.17100
C494        C  0.35316965  0.19218192  0.78288861     0.30900
C495        C  0.34647113  0.19097216  0.70345481     0.30900
C496        C  0.36652727  0.24264869  0.76199006    -0.05300
C497        C  0.38795846  0.15417077  0.76117305    -0.06000
C498        C  0.30133286  0.17895270  0.76701047    -0.05900
C499        C  0.36215753  0.24249769  0.72169507    -0.05300
C500        C  0.38426310  0.15352379  0.72100174    -0.06000
C501        C  0.29740713  0.17915517  0.72680150    -0.05900
C502        C  0.38105475  0.28865777  0.70859761    -0.31300
N503        N  0.39870529  0.31543066  0.73920354     0.15200
C504        C  0.39104775  0.28721192  0.77177614    -0.31300
H505        H  0.40498650  0.29678804  0.80007003     0.17100
C506        C  0.41958589  0.11935308  0.70669731    -0.30300
N507        N  0.44480799  0.09931946  0.73701381     0.13900
C508        C  0.42582661  0.12061408  0.77032774    -0.30300
C509        C  0.24826851  0.16639193  0.71925412    -0.30600
N510        N  0.22354880  0.15485530  0.75318175     0.14400
H511        H  0.23181103  0.16557482  0.69101245     0.17100
C512        C  0.25564011  0.16318156  0.78261132    -0.30600
H513        H  0.24702481  0.15625582  0.81298777     0.17100
H514        H  0.43891180  0.11261120  0.79915333     0.17100
H515        H  0.38421045  0.30111610  0.67874767     0.17100
H516        H  0.42736695  0.11104717  0.67639389     0.17100
C517        C  0.69318501  0.84679776  0.52588366     0.30900
C518        C  0.68558059  0.85540243  0.94655022     0.30900
C519        C  0.68117510  0.79352877  0.50869810    -0.05300
C520        C  0.65299988  0.88079097  0.50739200    -0.06000
C521        C  0.74166606  0.86150897  0.50236784    -0.05900
C522        C  0.67154687  0.80397240  0.96546733    -0.05300
C523        C  0.65007352  0.89239069  0.96842458    -0.06000
C524        C  0.73664964  0.86723327  0.96386461    -0.05900
C525        C  0.65249586  0.75786096  0.95337073    -0.31300
N526        N  0.64529378  0.72729648  0.98474374     0.15200
C527        C  0.66349265  0.74746062  0.52328350    -0.31300
H528        H  0.66074469  0.73690974  0.55349639     0.17100
C529        C  0.61373486  0.92762918  0.95940650    -0.30300
N530        N  0.59592387  0.94919731  0.99275851     0.13900
C531        C  0.61648164  0.91437851  0.52063502    -0.30300
C532        C  0.78216145  0.88399051  0.94921406    -0.26200
N533        N  0.81290623  0.89286222  0.97922163     0.14400
H534        H  0.79136339  0.89190706  0.91906889     0.17100
C535        C  0.78995024  0.87883642  0.50913970    -0.30600
H536        H  0.80691227  0.88259278  0.53708988     0.17100
H537        H  0.60895519  0.92419375  0.55070181     0.17100
H538        H  0.64260768  0.74779659  0.92404793     0.17100
H539        H  0.59991963  0.93642578  0.93092164     0.17100
C540        C  0.69189737  0.85728648  0.77694126     0.30900
C541        C  0.69572635  0.85222186  0.69745612     0.30900
C542        C  0.67770897  0.80576112  0.75922557    -0.05300
C543        C  0.65651086  0.89376468  0.75574486    -0.06000
C544        C  0.74301206  0.86825897  0.75789854    -0.05900
C545        C  0.67982777  0.80213601  0.71887118    -0.05300
C546        C  0.65886691  0.89163270  0.71541817    -0.06000
C547        C  0.74603266  0.86586454  0.71754230    -0.05900
C548        C  0.66300289  0.75313900  0.71007394    -0.31300
N549        N  0.65037853  0.72870404  0.74387859     0.15200
C550        C  0.65894346  0.76070946  0.77368663    -0.31300
H551        H  0.65003329  0.75211881  0.80375617     0.17100
C552        C  0.62377762  0.92592975  0.70191925    -0.30300
N553        N  0.59999939  0.94816581  0.73299164     0.13900
C554        C  0.61878908  0.92766659  0.76577226    -0.30300
C555        C  0.79479352  0.88114690  0.70756950    -0.30600
N556        N  0.81942746  0.89415179  0.74048722     0.14400
H557        H  0.81102820  0.88349811  0.67864654     0.17100
C558        C  0.78814720  0.88554540  0.77125700    -0.30600
H559        H  0.79666997  0.89412361  0.80111949     0.17100
H560        H  0.60444000  0.93580973  0.79471593     0.17100
H561        H  0.65974104  0.73672795  0.68144413     0.17100
H562        H  0.61635393  0.93418634  0.67184047     0.17100
C563        C  0.19878998  0.70075566  0.96761458     0.30900
C564        C  0.20279239  0.69420113  0.54785666     0.30900
C565        C  0.17676259  0.74711716  0.99056839    -0.05300
C566        C  0.17064344  0.65534498  0.98636806    -0.06000
C567        C  0.25183461  0.69650458  0.98482334    -0.05900
C568        C  0.17949433  0.74198113  0.53017726    -0.05300
C569        C  0.17337883  0.65157747  0.52754712    -0.06000
C570        C  0.25516244  0.69154279  0.52814925    -0.05900
C571        C  0.15194059  0.78279318  0.54424871    -0.31300
N572        N  0.13654603  0.81104974  0.51393584     0.15200
C573        C  0.15531519  0.79432921  0.98307562    -0.31300
H574        H  0.15162512  0.81159642  0.95491950     0.17100
C575        C  0.13470858  0.61933748  0.53857160    -0.30300
N576        N  0.11494388  0.59789646  0.50655216     0.13900
C577        C  0.13374678  0.62220723  0.97415004    -0.30300
C578        C  0.29681819  0.66375162  0.53896376    -0.30600
N579        N  0.32300603  0.64853244  0.50674354     0.14400
H580        H  0.30374872  0.65083133  0.56814427     0.17100
C581        C  0.29897973  0.68307315  0.97040035    -0.30600
H582        H  0.31057991  0.68028144  0.94021216     0.17100
H583        H  0.12208982  0.61715805  0.94452967     0.17100
H584        H  0.14236796  0.79079247  0.57433863     0.17100
H585        H  0.11986747  0.61388308  0.56766975     0.17100
C586        C  0.19976861  0.70248572  0.79650305     0.30900
C587        C  0.19351336  0.70129724  0.71746348     0.30900
C588        C  0.24782281  0.68354031  0.77372077    -0.05300
C589        C  0.15817346  0.66861726  0.77966083    -0.06000
C590        C  0.18943172  0.75525643  0.77698044    -0.05900
C591        C  0.24336755  0.68327459  0.73364844    -0.05300
C592        C  0.15465591  0.66835022  0.73956913    -0.06000
C593        C  0.18583471  0.75375733  0.73664439    -0.05900
C594        C  0.28670341  0.66351314  0.71719923    -0.31300
N595        N  0.31852831  0.65119225  0.74571066     0.15200
C596        C  0.29585741  0.66406167  0.78042655    -0.31300
H597        H  0.31289793  0.65922013  0.80830438     0.17100
C598        C  0.11471221  0.63729996  0.73063543    -0.30300
N599        N  0.09457760  0.61761858  0.76403265     0.13900
C600        C  0.12091289  0.63675923  0.79421464    -0.30300
C601        C  0.16096266  0.79734364  0.72537965    -0.30600
N602        N  0.15201945  0.82744825  0.75685254     0.14400
H603        H  0.14661390  0.80409011  0.69675531     0.17100
C604        C  0.16924917  0.80228355  0.78844285    -0.30600
H605        H  0.16449329  0.81630781  0.81780011     0.17100
H606        H  0.11347726  0.62844808  0.82453745     0.17100
H607        H  0.29397589  0.65692034  0.68655951     0.17100
H608        H  0.10178232  0.62888489  0.70181314     0.17100
O609        O  0.97389313  0.08711402  0.52894054    -0.72000
O610        O  0.05417677  0.95381754  0.52632485    -0.73000
O611        O  0.07786639  0.05944376  0.53185430    -0.61600
O612        O  0.95092471  0.98142369  0.52713078    -0.70000
O613        O  0.95081852  0.98073367  0.96846294    -0.69600
O614        O  0.07796447  0.06828647  0.96810469    -0.60800
O615        O  0.05573327  0.96188654  0.96628759    -0.73300
O616        O  0.97218457  0.08711261  0.96617649    -0.72100
Cu617      Cu  0.01407568  0.02036742  0.53079081     1.04600
Cu618      Cu  0.01426627  0.02456482  0.96502242     1.04300
C619        C  0.96357694  0.10791410  0.49637551     0.94200
C620        C  0.06878597  0.93613055  0.49316638     0.93300
C621        C  0.10102699  0.07428473  0.50121226     0.85500
C622        C  0.93170326  0.96855690  0.49514103     0.91800
O623        O  0.06078025  0.96501164  0.75771664    -0.72000
O624        O  0.97347073  0.09124479  0.75597483    -0.73000
O625        O  0.95476398  0.98338357  0.75208792    -0.61600
O626        O  0.07968401  0.07281866  0.75960879    -0.70000
O627        O  0.08380310  0.07338908  0.69523261    -0.69600
O628        O  0.96134230  0.98693763  0.68787553    -0.60800
O629        O  0.97959241  0.09387067  0.69173191    -0.73300
O630        O  0.06622373  0.96647803  0.69342237    -0.72100
Cu631      Cu  0.01685045  0.02802604  0.75868525     1.04600
Cu632      Cu  0.02296912  0.03018002  0.68993448     1.04300
C633        C  0.07731477  0.94581208  0.72578100     0.94200
C634        C  0.96320814  0.11282888  0.72385215     0.93300
C635        C  0.93849705  0.97140491  0.71851606     0.85500
C636        C  0.10128044  0.08691057  0.72777787     0.91800
O637        O  0.56225281  0.59054710  0.97683577    -0.72000
O638        O  0.47858259  0.46594160  0.96207451    -0.73000
O639        O  0.45756080  0.57146477  0.97854717    -0.61600
O640        O  0.58397136  0.48625769  0.96240624    -0.70000
O641        O  0.58303720  0.47312313  0.56568976    -0.69600
O642        O  0.45804471  0.55710222  0.56523743    -0.60800
O643        O  0.47836012  0.45028412  0.56503289    -0.73300
O644        O  0.56273696  0.57999912  0.56341275    -0.72100
Cu645      Cu  0.52042211  0.52897822  0.96779982     1.04600
Cu646      Cu  0.52046870  0.51512894  0.56703835     1.04300
C647        C  0.57609148  0.59955936  0.53071101     0.94200
C648        C  0.46671383  0.42959475  0.53275105     0.93300
C649        C  0.43813095  0.56991090  0.53344158     0.85500
C650        C  0.60505508  0.45934076  0.53416433     0.91800
O651        O  0.46975764  0.56694104  0.78644659    -0.72000
O652        O  0.59391142  0.48270051  0.77202252    -0.73000
O653        O  0.57216676  0.58906430  0.76663047    -0.61600
O654        O  0.49159559  0.46040770  0.78865116    -0.70000
O655        O  0.47763513  0.45502467  0.72558829    -0.69600
O656        O  0.55654236  0.58147145  0.70393239    -0.60800
O657        O  0.58086894  0.47530509  0.70894501    -0.73300
O658        O  0.45362823  0.56139174  0.72372539    -0.72100
Cu659      Cu  0.53241799  0.52514003  0.78058325     1.04600
Cu660      Cu  0.51661196  0.51803600  0.71332805     1.04300
C661        C  0.44188525  0.57750696  0.75796047     0.94200
C662        C  0.60707366  0.46521951  0.73877457     0.93300
C663        C  0.57683934  0.60543618  0.73166506     0.85500
C664        C  0.47223851  0.43725308  0.75985139     0.91800
C665        C  0.36568437  0.62486345  0.73796242    -0.15500
C666        C  0.39565042  0.60797499  0.76601492    -0.30700
H667        H  0.37629171  0.61678103  0.70791175     0.13500
H668        H  0.38598916  0.61597594  0.79614984     0.14100
C669        C  0.12306442  0.87450774  0.75804392    -0.15500
C670        C  0.10915698  0.89913868  0.72551562    -0.30700
H671        H  0.11186180  0.89009573  0.78618550     0.13500
H672        H  0.12118574  0.88480353  0.69728638     0.14100
C673        C  0.16136097  0.72856086  0.90277512    -0.12400
C674        C  0.19672715  0.69982372  0.92325554     0.09700
C675        C  0.22559451  0.66387595  0.90180722    -0.12400
C676        C  0.22731826  0.66496469  0.86125612    -0.12400
C677        C  0.19890469  0.70101459  0.84082537     0.09700
C678        C  0.16198135  0.72850190  0.86222846    -0.12400
H679        H  0.13114472  0.74864279  0.91762473     0.13700
H680        H  0.24644430  0.63423179  0.91634108     0.13700
H681        H  0.24900422  0.63583211  0.84625005     0.13700
H682        H  0.13219745  0.74859514  0.84778981     0.13700
C683        C  0.21791901  0.73871561  0.61174798    -0.12400
C684        C  0.20359828  0.69424819  0.59193793     0.09700
C685        C  0.19276993  0.65020808  0.61389588    -0.12400
C686        C  0.18776513  0.65301003  0.65414109    -0.12400
C687        C  0.19439918  0.69970717  0.67355047     0.09700
C688        C  0.21343328  0.74142071  0.65201997    -0.12400
H689        H  0.23180096  0.77179967  0.59597318     0.13700
H690        H  0.18999434  0.61305852  0.60042770     0.13700
H691        H  0.18058634  0.61810120  0.67011465     0.13700
H692        H  0.22579582  0.77599582  0.66618333     0.13700
C693        C  0.36713814  0.61632568  0.50417563    -0.15500
C694        C  0.39200122  0.60134497  0.53562007    -0.30700
H695        H  0.39361457  0.64355644  0.96565669     0.13500
H696        H  0.37879478  0.61286142  0.56431382     0.14100
C697        C  0.09863387  0.88877957  0.48918258    -0.15500
C698        C  0.10635653  0.85663006  0.51858196    -0.30700
H699        H  0.10405961  0.87906030  0.96407607     0.13500
H700        H  0.09065613  0.86572244  0.54717663     0.14100
C701        C  0.62905281  0.67871311  0.75005766    -0.15500
C702        C  0.60472881  0.65300275  0.72262527    -0.30700
H703        H  0.62923401  0.66331956  0.77933465     0.13500
H704        H  0.60316206  0.66817676  0.69339754     0.14100
C705        C  0.86773188  0.91879800  0.74415367    -0.15500
C706        C  0.89241097  0.94041016  0.71399804    -0.30700
H707        H  0.88271659  0.92322840  0.77303624     0.13500
H708        H  0.87772318  0.93698946  0.68502283     0.14100
C709        C  0.67869465  0.90288274  0.88234722    -0.12400
C710        C  0.68735843  0.85715850  0.90265519     0.09700
C711        C  0.70794057  0.81560689  0.88181937    -0.12400
C712        C  0.71122795  0.81679936  0.84153728    -0.12400
C713        C  0.69258885  0.85891570  0.82095020     0.09700
C714        C  0.68094040  0.90366847  0.84192004    -0.12400
H715        H  0.67229810  0.93863765  0.89738436     0.13700
H716        H  0.72223470  0.78232705  0.89666001     0.13700
H717        H  0.72797743  0.78436993  0.82650080     0.13700
H718        H  0.67557628  0.93979197  0.82742915     0.13700
C719        C  0.72488464  0.88397056  0.59017889    -0.12400
C720        C  0.69258897  0.85080480  0.57042018     0.09700
C721        C  0.65461035  0.82651525  0.59288941    -0.12400
C722        C  0.65597084  0.82647917  0.63350145    -0.12400
C723        C  0.69460682  0.85197453  0.65304757     0.09700
C724        C  0.72563433  0.88477757  0.63076659    -0.12400
H725        H  0.74757338  0.91167313  0.57473671     0.13700
H726        H  0.62339541  0.80778383  0.57915138     0.13700
H727        H  0.62598690  0.80744077  0.64951358     0.13700
H728        H  0.74889705  0.91302232  0.64440415     0.13700
C729        C  0.62005427  0.67022655  0.49575084    -0.15500
C730        C  0.60620096  0.64745730  0.52955800    -0.30700
H731        H  0.61307876  0.66322011  0.95423403     0.13500
H732        H  0.61599157  0.66445240  0.55705907     0.14100
C733        C  0.86117326  0.91622233  0.46858815    -0.15500
C734        C  0.88424677  0.93941397  0.49802860    -0.30700
H735        H  0.87726382  0.91902670  0.43940075     0.13500
H736        H  0.86978491  0.93219192  0.03411154     0.14100
C737        C  0.52125267  0.06052704  0.76379319    -0.12400
C738        C  0.48540189  0.06264708  0.73452307     0.09700
C739        C  0.48940144  0.02781076  0.70338121    -0.12400
C740        C  0.52761084  0.99073647  0.70226602    -0.12400
C741        C  0.56225192  0.98774241  0.73236963     0.09700
C742        C  0.55906535  0.02354970  0.76275321    -0.12400
H743        H  0.52034683  0.08762126  0.78754342     0.13700
H744        H  0.46222701  0.02823941  0.68045858     0.13700
H745        H  0.52914896  0.96352392  0.67856791     0.13700
H746        H  0.58610530  0.02313533  0.78578721     0.13700
C747        C  0.44386600  0.38920308  0.76585111    -0.15500
C748        C  0.42487697  0.36347907  0.73550735    -0.30700
H749        H  0.43947810  0.37482215  0.79519113     0.13500
H750        H  0.42985199  0.37905370  0.70646968     0.14100
C751        C  0.17449670  0.13117181  0.75760050    -0.15500
C752        C  0.14740406  0.11819095  0.72660212    -0.30700
H753        H  0.16100313  0.12049453  0.78644621     0.13500
H754        H  0.16070018  0.12828905  0.69774699     0.14100
C755        C  0.52259909  0.06548387  0.96666865    -0.12400
C756        C  0.48441484  0.06550341  0.99549742     0.09700
C757        C  0.50885721  0.04219458  0.52364017    -0.12400
C758        C  0.54603133  0.00424085  0.52284262    -0.12400
C759        C  0.55942177  0.98952966  0.99479517     0.09700
C760        C  0.55965987  0.02774826  0.96626609    -0.12400
H761        H  0.52389510  0.09465533  0.94443749     0.13700
H762        H  0.50716351  0.06863844  0.54783133     0.13700
H763        H  0.57203157  0.00277825  0.54650367     0.13700
H764        H  0.58863205  0.02834853  0.94364589     0.13700
C765        C  0.34410992  0.23886351  0.88841078    -0.12400
C766        C  0.35371539  0.19404333  0.90931926     0.09700
C767        C  0.35764527  0.14760108  0.88860773    -0.12400
C768        C  0.35809285  0.14700886  0.84808383    -0.12400
C769        C  0.35422086  0.19281386  0.82706902     0.09700
C770        C  0.34354773  0.23805811  0.84798672    -0.12400
H771        H  0.33441825  0.27421499  0.90307843     0.13700
H772        H  0.35941074  0.11144712  0.90379732     0.13700
H773        H  0.36024812  0.11050745  0.83328228     0.13700
H774        H  0.33282297  0.27280524  0.83337334     0.13700
C775        C  0.31212226  0.15362321  0.59872989    -0.12400
C776        C  0.34657301  0.18245687  0.57635975     0.09700
C777        C  0.38660126  0.20538097  0.59619293    -0.12400
C778        C  0.38591764  0.20879328  0.63670114    -0.12400
C779        C  0.34620728  0.18751542  0.65898946     0.09700
C780        C  0.31262622  0.15532948  0.63936127    -0.12400
H781        H  0.28680832  0.12719804  0.58531645     0.13700
H782        H  0.41871480  0.22093474  0.58037928     0.13700
H783        H  0.41736678  0.22696232  0.65056010     0.13700
H784        H  0.28844290  0.12909584  0.65496285     0.13700
C785        C  0.43555475  0.39147947  0.98315806    -0.15500
C786        C  0.41674872  0.36129592  0.01144499    -0.30700
H787        H  0.42888267  0.38211912  0.95305550     0.13500
H788        H  0.43624089  0.37549643  0.47163946     0.14100
C789        C  0.17327498  0.12389678  0.97520580    -0.15500
C790        C  0.14219156  0.11118470  0.00485938    -0.30700
H791        H  0.16280311  0.11440797  0.94576417     0.13500
H792        H  0.16259190  0.10373549  0.53567020     0.14100
C793        C  0.98188766  0.53952479  0.73717975    -0.12400
C794        C  0.97996753  0.50282789  0.76691322     0.09700
C795        C  0.01466049  0.50641311  0.79704457    -0.12400
C796        C  0.05136239  0.54487866  0.79675284    -0.12400
C797        C  0.05420770  0.58063945  0.76632516     0.09700
C798        C  0.01840183  0.57797151  0.73693989    -0.12400
H799        H  0.95502095  0.53862734  0.71404630     0.13700
H800        H  0.01448266  0.47852793  0.82020342     0.13700
H801        H  0.07858024  0.54545105  0.81964688     0.13700
H802        H  0.01865235  0.60555542  0.71358146     0.13700
C803        C  0.91441258  0.18259046  0.75623875    -0.15500
C804        C  0.93373275  0.16105354  0.72351884    -0.30700
H805        H  0.91844693  0.16263894  0.78363218     0.13500
H806        H  0.93058699  0.18037263  0.69589147     0.14100
C807        C  0.67814302  0.41755225  0.76657605    -0.15500
C808        C  0.65357326  0.43405855  0.73497690    -0.30700
H809        H  0.66171267  0.42500326  0.79520870     0.13500
H810        H  0.66833564  0.42649095  0.70597557     0.14100
C811        C  0.03121584  0.48915698  0.47822597    -0.12400
C812        C  0.99554013  0.48871608  0.50903602     0.09700
C813        C  0.99869935  0.52268345  0.97659499    -0.12400
C814        C  0.03791806  0.55862194  0.97547931    -0.12400
C815        C  0.07370094  0.56208181  0.50669059     0.09700
C816        C  0.06985945  0.52546635  0.47707051    -0.12400
H817        H  0.02991800  0.46077689  0.45538893     0.13700
H818        H  0.97279941  0.52153461  0.95282249     0.13700
H819        H  0.04107156  0.58414541  0.95088696     0.13700
H820        H  0.09745683  0.52413238  0.45349375     0.13700
C821        C  0.89038441  0.32956425  0.90852004    -0.12400
C822        C  0.85663525  0.36079170  0.92993697     0.09700
C823        C  0.83024975  0.39837880  0.90929500    -0.12400
C824        C  0.83007687  0.39803846  0.86873366    -0.12400
C825        C  0.85675967  0.36047749  0.84737900     0.09700
C826        C  0.89060129  0.32957575  0.86787274    -0.12400
H827        H  0.91790105  0.30631297  0.92296169     0.13700
H828        H  0.81040171  0.42890883  0.92434439     0.13700
H829        H  0.80979238  0.42801922  0.85412853     0.13700
H830        H  0.91878428  0.30681288  0.85278235     0.13700
C831        C  0.89820383  0.34400464  0.61746833    -0.12400
C832        C  0.85962876  0.36874633  0.59733040     0.09700
C833        C  0.82858386  0.40295229  0.61844530    -0.12400
C834        C  0.82921097  0.40379831  0.65897409    -0.12400
C835        C  0.86003709  0.36966480  0.67927860     0.09700
C836        C  0.89834611  0.34436041  0.65792518    -0.12400
H837        H  0.92824968  0.32406544  0.60199029     0.13700
H838        H  0.80508859  0.43030459  0.60393405     0.13700
H839        H  0.80635760  0.43197352  0.67412202     0.13700
H840        H  0.92850959  0.32475569  0.67237140     0.13700
C841        C  0.91348037  0.18081924  0.52397306    -0.15500
C842        C  0.93533408  0.15640845  0.49368056    -0.30700
H843        H  0.91551584  0.16406622  0.55272577     0.13500
H844        H  0.92197585  0.16959888  0.96458379     0.14100
C845        C  0.68092704  0.41544246  0.50640636    -0.15500
C846        C  0.65296476  0.43090669  0.53719531    -0.30700
H847        H  0.65884104  0.42114545  0.04640293     0.13500
H848        H  0.66668963  0.42530215  0.56623656     0.14100
loop_ 
_geom_bond_atom_site_label_1 
_geom_bond_atom_site_label_2 
_geom_bond_distance 
_geom_bond_site_symmetry_2 
_ccdc_geom_bond_type 
C1            C3   1.545       .  S
C1            C5   1.538       .  S
C1            C4   1.532       .  S
C1          C408   1.528       .  S
C2            C6   1.542       .  S
C2            C8   1.547       .  S
C2            C7   1.528       .  S
C2          C398   1.523       .  S
C3           C11   1.381       .  A
C3          C430   1.398   1_554  A
C4           C15   1.376       .  A
C4          C431   1.387   1_554  A
C5           C19   1.377       .  A
C5          C432   1.395   1_554  A
C6            C9   1.379       .  A
C6          C427   1.395       .  A
C7           C13   1.375       .  A
C7          C428   1.384       .  A
C8           C16   1.380       .  A
C8          C429   1.396       .  A
C9           H22   1.082       .  S
C9          N434   1.353       .  A
N10          C11   1.355       .  A
N10         C433   1.358   1_554  A
N10         C421   1.442       .  S
C11          H12   1.080       .  S
C13          H23   1.082       .  S
C13          N14   1.360       .  A
N14         C439   1.361       .  A
N14         C812   1.441       .  S
C15          H21   1.082       .  S
C15         N438   1.362       .  A
C16          H18   1.079       .  S
C16         N441   1.363       .  A
N17          C19   1.351       .  A
N17         C440   1.366   1_554  A
N17         C417   1.446       .  S
C19          H20   1.082       .  S
C24          C26   1.552       .  S
C24          C28   1.550       .  S
C24          C27   1.531       .  S
C24         C411   1.525       .  S
C25          C29   1.540       .  S
C25          C31   1.542       .  S
C25          C30   1.528       .  S
C25         C401   1.525       .  S
C26          C34   1.387       .  A
C26          C29   1.397       .  A
C27          C38   1.377       .  A
C27          C30   1.386       .  A
C28          C42   1.385       .  A
C28          C31   1.396       .  A
C29          C32   1.376       .  A
C30          C36   1.373       .  A
C31          C39   1.378       .  A
C32          H45   1.080       .  S
C32          N33   1.351       .  A
N33          C34   1.363       .  A
N33         C379   1.442       .  S
C34          H35   1.080       .  S
C36          H46   1.082       .  S
C36          N37   1.360       .  A
N37          C38   1.360       .  A
N37         C370   1.439       .  S
C38          H44   1.082       .  S
C39          H41   1.082       .  S
C39          N40   1.354       .  A
N40          C42   1.361       .  A
N40         C383   1.444       .  S
C42          H43   1.079       .  S
C47          C49   1.543       .  S
C47          C51   1.547       .  S
C47          C50   1.528       .  S
C47         C352   1.523       .  S
C48          C52   1.545       .  S
C48          C54   1.528       .  S
C48          C53   1.535       .  S
C48         C342   1.526       .  S
C49          C57   1.378       .  A
C49         C476   1.399   1_554  A
C50          C61   1.371       .  A
C50         C477   1.384   1_554  A
C51          C65   1.382       .  A
C51         C478   1.393   1_554  A
C52          C55   1.383       .  A
C52         C473   1.395       .  A
C53          C59   1.376       .  A
C53         C474   1.392       .  A
C54          C62   1.373       .  A
C54         C475   1.396       .  A
C55          H68   1.082       .  S
C55          N56   1.359       .  A
N56         C481   1.358       .  A
N56         C362   1.445       .  S
C57          H58   1.082       .  S
C57         N480   1.352       .  A
C59          H69   1.082       .  S
C59          N60   1.358       .  A
N60         C485   1.361       .  A
N60         C332   1.441       .  S
C61          H67   1.082       .  S
C61         N484   1.356   1_554  A
C62          H64   1.083       .  S
C62          N63   1.351       .  A
N63         C489   1.366       .  A
N63         C365   1.445       .  S
C65          H66   1.076       .  S
C65         N487   1.365   1_554  A
C70          C72   1.544       .  S
C70          C74   1.536       .  S
C70          C73   1.535       .  S
C70         C345   1.527       .  S
C71          C75   1.547       .  S
C71          C77   1.544       .  S
C71          C76   1.535       .  S
C71         C355   1.523       .  S
C72          C80   1.378       .  A
C72          C75   1.397       .  A
C73          C84   1.376       .  A
C73          C76   1.388       .  A
C74          C88   1.378       .  A
C74          C77   1.393       .  A
C75          C78   1.385       .  A
C76          C82   1.376       .  A
C77          C85   1.381       .  A
C78          H91   1.081       .  S
C78          N79   1.356       .  A
N79          C80   1.358       .  A
N79         C324   1.445       .  S
C80          H81   1.079       .  S
C82          H92   1.082       .  S
C82          N83   1.361       .  A
N83          C84   1.360       .  A
N83         C314   1.442       .  S
C84          H90   1.081       .  S
C85          H87   1.078       .  S
C85          N86   1.358       .  A
N86          C88   1.358       .  A
N86         C327   1.444       .  S
C88          H89   1.083       .  S
C93          C95   1.546       .  S
C93          C97   1.547       .  S
C93          C96   1.530       .  S
C93         C296   1.519       .  S
C94          C98   1.550       .  S
C94         C100   1.529       .  S
C94          C99   1.538       .  S
C94         C286   1.530       .  S
C95         C103   1.382       .  A
C95         C522   1.392   1_554  A
C96         C107   1.374       .  A
C96         C523   1.390   1_554  A
C97         C111   1.381       .  A
C97         C524   1.391   1_554  A
C98         C101   1.384       .  A
C98         C519   1.400       .  A
C99         C105   1.379       .  A
C99         C520   1.390       .  A
C100        C108   1.378       .  A
C100        C521   1.393       .  A
C101        H114   1.082       .  S
C101        N102   1.360       .  A
N102        C527   1.359       .  A
N102        C729   1.448       .  S
C103        H104   1.080       .  S
C103        N526   1.358   1_554  A
C105        H115   1.081       .  S
C105        N106   1.362       .  A
N106        C531   1.362       .  A
N106        C335   1.446       .  S
C107        H113   1.082       .  S
C107        N530   1.356   1_554  A
C108        H110   1.082       .  S
C108        N109   1.353       .  A
N109        C535   1.366       .  A
N109        C733   1.448       .  S
C111        H112   1.079       .  S
C111        N533   1.365   1_554  A
C116        C118   1.549       .  S
C116        C120   1.543       .  S
C116        C119   1.543       .  S
C116        C289   1.532       .  S
C117        C121   1.542       .  S
C117        C123   1.534       .  S
C117        C122   1.528       .  S
C117        C299   1.522       .  S
C118        C126   1.381       .  A
C118        C121   1.396       .  A
C119        C130   1.381       .  A
C119        C122   1.390       .  A
C120        C134   1.383       .  A
C120        C123   1.393       .  A
C121        C124   1.380       .  A
C122        C128   1.372       .  A
C123        C131   1.374       .  A
C124        H137   1.081       .  S
C124        N125   1.355       .  A
N125        C126   1.360       .  A
N125        C277   1.443       .  S
C126        H127   1.079       .  S
C128        H138   1.082       .  S
C128        N129   1.357       .  A
N129        C130   1.361       .  A
N129        C317   1.440       .  S
C130        H136   1.081       .  S
C131        H133   1.081       .  S
C131        N132   1.351       .  A
N132        C134   1.365       .  A
N132        C281   1.441       .  S
C134        H135   1.081       .  S
C139        C141   1.541       .  S
C139        C143   1.547       .  S
C139        C142   1.546       .  S
C139        C250   1.533       .  S
C140        C144   1.539       .  S
C140        C146   1.537       .  S
C140        C145   1.541       .  S
C140        C260   1.531       .  S
C141        C149   1.381       .  A
C141        C568   1.386       .  A
C142        C153   1.383       .  A
C142        C569   1.396       .  A
C143        C157   1.385       .  A
C143        C570   1.408       .  A
C144        C147   1.378       .  A
C144        C565   1.395   1_554  A
C145        C151   1.379       .  A
C145        C566   1.394   1_554  A
C146        C154   1.380       .  A
C146        C567   1.395   1_554  A
C147        H160   1.082       .  S
C147        N148   1.352       .  A
N148        C573   1.364   1_554  A
N148        C274   1.446       .  S
C149        H150   1.081       .  S
C149        N572   1.366       .  A
C151        H161   1.080       .  S
C151        N152   1.359       .  A
N152        C577   1.360   1_554  A
N152        C391   1.447       .  S
C153        H159   1.081       .  S
C153        N576   1.359       .  A
C154        H156   1.081       .  S
C154        N155   1.362       .  A
N155        C581   1.353   1_554  A
N155        C269   1.443   1_554  S
C157        H158   1.081       .  S
C157        N579   1.349       .  A
C162        C164   1.542       .  S
C162        C166   1.537       .  S
C162        C165   1.544       .  S
C162        C253   1.531       .  S
C163        C167   1.529       .  S
C163        C169   1.545       .  S
C163        C168   1.540       .  S
C163        C263   1.530       .  S
C164        C172   1.383       .  A
C164        C167   1.388       .  A
C165        C176   1.378       .  A
C165        C168   1.395       .  A
C166        C180   1.380       .  A
C166        C169   1.407       .  A
C167        C170   1.372       .  A
C168        C174   1.379       .  A
C169        C177   1.384       .  A
C170        H183   1.083       .  S
C170        N171   1.355       .  A
N171        C172   1.363       .  A
N171        C241   1.441       .  S
C172        H173   1.080       .  S
C174        H184   1.081       .  S
C174        N175   1.358       .  A
N175        C176   1.359       .  A
N175        C373   1.440       .  S
C176        H182   1.081       .  S
C177        H179   1.080       .  S
C177        N178   1.360       .  A
N178        C180   1.351       .  A
N178        C245   1.444       .  S
C180        H181   1.083       .  S
O185       Cu193   2.050   1_655  S
O185        C195   1.285   1_554  A
O186       Cu193   2.051   1_565  S
O186        C196   1.284   1_554  A
O187       Cu193   1.975       .  S
O187        C197   1.271       .  A
O188       Cu193   1.969   1_665  S
O188        C198   1.270       .  A
O189       Cu194   2.055   1_665  S
O189        C622   1.284       .  A
O190       Cu194   2.048       .  S
O190        C621   1.284       .  A
O191       Cu194   1.975   1_565  S
O191        C620   1.271       .  A
O192       Cu194   1.980   1_655  S
O192        C619   1.272       .  A
Cu193      Cu618   2.375   1_554  S
Cu194      Cu617   2.374       .  S
C195        O616   1.271       .  A
C195        C418   1.477       .  S
C196        O615   1.271       .  A
C196        C273   1.474       .  S
C197        O614   1.284   1_554  A
C197        C790   1.473       .  S
C198        O613   1.283   1_554  A
C198        C310   1.469       .  S
O199       Cu207   2.034   1_565  S
O199        C209   1.282       .  A
O200       Cu207   2.028   1_655  S
O200        C210   1.282       .  A
O201       Cu207   1.997   1_665  S
O201        C211   1.274       .  A
O202       Cu207   2.000       .  S
O202        C212   1.276       .  A
O203       Cu208   2.025       .  S
O203        C212   1.280       .  A
O204       Cu208   2.025   1_665  S
O204        C211   1.282       .  A
O205       Cu208   1.997   1_655  S
O205        C210   1.274       .  A
O206       Cu208   1.987   1_565  S
O206        C209   1.273       .  A
Cu207      Cu208   2.374       .  S
C209        C246   1.474       .  S
C210        C380   1.478       .  S
C211        C282   1.476       .  S
C212        C328   1.478       .  S
O213       Cu221   2.006       .  S
O213        C647   1.277       .  A
O214       Cu221   2.001       .  S
O214        C648   1.276       .  A
O215       Cu221   2.031       .  S
O215        C649   1.282       .  A
O216       Cu221   2.037       .  S
O216        C650   1.283       .  A
O217       Cu222   2.000       .  S
O217        C226   1.277   1_554  A
O218       Cu222   1.998       .  S
O218        C225   1.275       .  A
O219       Cu222   2.036       .  S
O219        C224   1.283   1_554  A
O220       Cu222   2.034       .  S
O220        C223   1.281       .  A
Cu221      Cu646   2.373       .  S
Cu222      Cu645   2.373   1_554  S
C223        O637   1.275   1_554  A
C223        C306   1.478       .  S
C224        O638   1.275       .  A
C224        C785   1.482       .  S
C225        O639   1.281   1_554  A
C225        C270   1.476       .  S
C226        O640   1.279       .  A
C226        C422   1.480       .  S
O227       Cu235   2.013       .  S
O227        C237   1.277       .  A
O228       Cu235   2.018       .  S
O228        C238   1.280       .  A
O229       Cu235   2.002       .  S
O229        C239   1.276       .  A
O230       Cu235   1.997       .  S
O230        C240   1.276       .  A
O231       Cu236   2.024       .  S
O231        C240   1.280       .  A
O232       Cu236   2.021       .  S
O232        C239   1.280       .  A
O233       Cu236   2.012       .  S
O233        C238   1.277       .  A
O234       Cu236   2.009       .  S
O234        C237   1.279       .  A
Cu235      Cu236   2.374       .  S
C237        C242   1.478       .  S
C238        C384   1.479       .  S
C239        C278   1.476       .  S
C240        C323   1.474       .  S
C241        C242   1.345       .  D
C241        H243   1.087       .  S
C242        H244   1.084       .  S
C245        C246   1.342       .  D
C245        H247   1.087       .  S
C246        H248   1.083       .  S
C249        C250   1.405       .  A
C249        C254   1.400       .  A
C249        H255   1.082       .  S
C250        C251   1.410       .  A
C251        C252   1.399       .  A
C251        H256   1.080       .  S
C252        C253   1.405       .  A
C252        H257   1.081       .  S
C253        C254   1.410       .  A
C254        H258   1.080       .  S
C259        C260   1.408       .  A
C259        C264   1.399       .  A
C259        H265   1.082       .  S
C260        C261   1.406       .  A
C261        C262   1.400       .  A
C261        H266   1.079       .  S
C262        C263   1.408       .  A
C262        H267   1.082       .  S
C263        C264   1.407       .  A
C264        H268   1.081       .  S
C269        C270   1.343   1_556  D
C269        H695   1.087       .  S
C270        H272   1.084       .  S
H271        C693   1.087       .  S
C273        C274   1.340   1_556  D
C273        H699   1.083       .  S
C274        H276   1.087       .  S
H275        C697   1.084       .  S
C277        C278   1.344       .  D
C277        H279   1.087       .  S
C278        H280   1.084       .  S
C281        C282   1.340       .  D
C281        H283   1.087       .  S
C282        H284   1.084       .  S
C285        C286   1.409       .  A
C285        C290   1.400       .  A
C285        H291   1.082       .  S
C286        C287   1.406       .  A
C287        C288   1.400       .  A
C287        H292   1.080       .  S
C288        C289   1.408       .  A
C288        H293   1.080       .  S
C289        C290   1.406       .  A
C290        H294   1.081       .  S
C295        C296   1.403       .  A
C295        C300   1.396       .  A
C295        H301   1.080       .  S
C296        C297   1.407       .  A
C297        C298   1.393       .  A
C297        H302   1.080       .  S
C298        C299   1.402       .  A
C298        H303   1.079       .  S
C299        C300   1.408       .  A
C300        H304   1.080       .  S
C305        N526   1.439       .  S
C305        C306   1.349   1_556  D
C305        H731   1.087       .  S
C306        H308   1.084       .  S
H307        C729   1.087       .  S
C309        N533   1.441       .  S
C309        C310   1.338   1_556  D
C309        H311   1.087       .  S
C310        H736   1.083       .  S
H312        C734   1.083       .  S
C313        C314   1.407       .  A
C313        C318   1.396       .  A
C313        H319   1.081       .  S
C314        C315   1.406       .  A
C315        C316   1.397   1_545  A
C315        H320   1.082       .  S
C316        C317   1.406       .  A
C316        H321   1.082       .  S
C317        C318   1.404   1_565  A
C318        H322   1.082       .  S
C323        C324   1.346       .  D
C323        H325   1.082       .  S
C324        H326   1.087       .  S
C327        C328   1.351       .  D
C327        H329   1.087       .  S
C328        H330   1.083       .  S
C331        C332   1.406       .  A
C331        C336   1.399   1_545  A
C331        H337   1.082       .  S
C332        C757   1.402       .  A
C333        C334   1.394   1_545  A
C333        C756   1.407   1_554  A
C333        H338   1.082       .  S
C334        C759   1.401   1_554  A
C334        H339   1.083       .  S
C335        C336   1.408       .  A
C335        C758   1.408   1_565  A
C336        H340   1.081       .  S
C341        C342   1.405       .  A
C341        C346   1.396       .  A
C341        H347   1.080       .  S
C342        C343   1.410       .  A
C343        C344   1.398       .  A
C343        H348   1.081       .  S
C344        C345   1.405       .  A
C344        H349   1.082       .  S
C345        C346   1.407       .  A
C346        H350   1.080       .  S
C351        C352   1.403       .  A
C351        C356   1.396       .  A
C351        H357   1.075       .  S
C352        C353   1.409       .  A
C353        C354   1.392       .  A
C353        H358   1.082       .  S
C354        C355   1.403       .  A
C354        H359   1.081       .  S
C355        C356   1.407       .  A
C356        H360   1.076       .  S
C361        C648   1.482       .  S
C361        C362   1.352       .  D
C361        H363   1.084       .  S
C362        H788   1.087       .  S
H364        C786   1.087       .  S
C365        C366   1.341       .  D
C365        H367   1.087       .  S
C366        C621   1.476       .  S
C366        H792   1.084       .  S
H368        C790   1.083       .  S
C369        C370   1.405       .  A
C369        C374   1.399   1_655  A
C369        H375   1.082       .  S
C370        C371   1.404   1_655  A
C371        C372   1.395       .  A
C371        H376   1.082       .  S
C372        C373   1.405       .  A
C372        H377   1.082       .  S
C373        C374   1.406       .  A
C374        H378   1.082       .  S
C379        C380   1.341       .  D
C379        H381   1.087       .  S
C380        H382   1.084       .  S
C383        C384   1.346       .  D
C383        H385   1.087       .  S
C384        H386   1.084       .  S
C387        C388   1.405   1_455  A
C387        C392   1.396       .  A
C387        H393   1.082       .  S
C388        C813   1.408   1_554  A
C388        N438   1.446       .  S
C389        C390   1.395   1_655  A
C389        C812   1.404       .  A
C389        H394   1.082       .  S
C390        C815   1.407       .  A
C390        H395   1.081       .  S
C391        C392   1.407       .  A
C391        C814   1.408   1_554  A
C392        H396   1.082       .  S
C397        C398   1.405       .  A
C397        C402   1.399       .  A
C397        H403   1.079       .  S
C398        C399   1.407       .  A
C399        C400   1.393       .  A
C399        H404   1.081       .  S
C400        C401   1.403       .  A
C400        H405   1.082       .  S
C401        C402   1.408       .  A
C402        H406   1.078       .  S
C407        C408   1.408       .  A
C407        C412   1.397       .  A
C407        H413   1.082       .  S
C408        C409   1.404       .  A
C409        C410   1.398       .  A
C409        H414   1.078       .  S
C410        C411   1.408       .  A
C410        H415   1.079       .  S
C411        C412   1.405       .  A
C412        H416   1.081       .  S
C417        C418   1.339   1_554  D
C417        H419   1.087       .  S
C418        H844   1.084       .  S
H420        C842   1.083       .  S
C421        C422   1.349   1_554  D
C421        H847   1.087       .  S
C422        H424   1.084       .  S
H423        C845   1.087       .  S
C425        C427   1.550       .  S
C425        C429   1.544       .  S
C425        C428   1.530       .  S
C425        C832   1.524       .  S
C426        C430   1.549       .  S
C426        C432   1.554       .  S
C426        C431   1.535       .  S
C426        C822   1.532       .  S
C427        C435   1.384       .  A
C428        C439   1.375       .  A
C429        C443   1.381       .  A
C430        C433   1.384       .  A
C431        C437   1.379       .  A
C432        C440   1.387       .  A
C433        H446   1.081       .  S
N434        C435   1.363       .  A
N434        C845   1.446       .  S
C435        H436   1.079       .  S
C437        H447   1.082       .  S
C437        N438   1.362   1_556  A
C439        H445   1.082       .  S
C440        H442   1.079       .  S
N441        C443   1.355       .  A
N441        C841   1.446       .  S
C443        H444   1.082       .  S
C448        C450   1.543       .  S
C448        C452   1.543       .  S
C448        C451   1.530       .  S
C448        C835   1.526       .  S
C449        C453   1.551       .  S
C449        C455   1.551       .  S
C449        C454   1.533       .  S
C449        C825   1.532       .  S
C450        C458   1.381       .  A
C450        C453   1.397       .  A
C451        C462   1.375       .  A
C451        C454   1.386       .  A
C452        C466   1.380       .  A
C452        C455   1.397       .  A
C453        C456   1.385       .  A
C454        C460   1.378       .  A
C455        C463   1.383       .  A
C456        H469   1.081       .  S
C456        N457   1.358       .  A
N457        C458   1.358       .  A
N457        C803   1.446       .  S
C458        H459   1.080       .  S
C460        H470   1.082       .  S
C460        N461   1.361       .  A
N461        C462   1.361       .  A
N461        C794   1.444       .  S
C462        H468   1.082       .  S
C463        H465   1.082       .  S
C463        N464   1.359       .  A
N464        C466   1.356       .  A
N464        C807   1.444       .  S
C466        H467   1.078       .  S
C471        C473   1.548       .  S
C471        C475   1.556       .  S
C471        C474   1.539       .  S
C471        C776   1.537       .  S
C472        C476   1.552       .  S
C472        C478   1.534       .  S
C472        C477   1.530       .  S
C472        C766   1.520       .  S
C473        C481   1.382       .  A
C474        C485   1.377       .  A
C475        C489   1.388       .  A
C476        C479   1.388       .  A
C477        C483   1.374       .  A
C478        C486   1.377       .  A
C479        H492   1.081       .  S
C479        N480   1.364   1_556  A
N480        C786   1.446       .  S
C481        H482   1.079       .  S
C483        H493   1.081       .  S
C483        N484   1.359       .  A
N484        C756   1.435       .  S
C485        H491   1.082       .  S
C486        H488   1.083       .  S
C486        N487   1.354       .  A
N487        C789   1.446       .  S
C489        H490   1.077       .  S
C494        C496   1.542       .  S
C494        C498   1.532       .  S
C494        C497   1.536       .  S
C494        C769   1.524       .  S
C495        C499   1.547       .  S
C495        C501   1.547       .  S
C495        C500   1.534       .  S
C495        C779   1.536       .  S
C496        C504   1.380       .  A
C496        C499   1.397       .  A
C497        C508   1.374       .  A
C497        C500   1.391       .  A
C498        C512   1.379       .  A
C498        C501   1.393       .  A
C499        C502   1.380       .  A
C500        C506   1.376       .  A
C501        C509   1.377       .  A
C502        H515   1.081       .  S
C502        N503   1.358       .  A
N503        C504   1.356       .  A
N503        C748   1.440       .  S
C504        H505   1.080       .  S
C506        H516   1.082       .  S
C506        N507   1.359       .  A
N507        C508   1.361       .  A
N507        C738   1.441       .  S
C508        H514   1.081       .  S
C509        H511   1.076       .  S
C509        N510   1.363       .  A
N510        C512   1.357       .  A
N510        C751   1.447       .  S
C512        H513   1.083       .  S
C517        C519   1.548       .  S
C517        C521   1.554       .  S
C517        C520   1.536       .  S
C517        C720   1.539       .  S
C518        C522   1.537       .  S
C518        C524   1.525       .  S
C518        C523   1.533       .  S
C518        C710   1.514       .  S
C519        C527   1.384       .  A
C520        C531   1.375       .  A
C521        C535   1.384       .  A
C522        C525   1.375       .  A
C523        C529   1.373       .  A
C524        C532   1.371       .  A
C525        H538   1.082       .  S
C525        N526   1.356       .  A
C527        H528   1.079       .  S
C529        H539   1.081       .  S
C529        N530   1.355       .  A
N530        C759   1.430       .  S
C531        H537   1.082       .  S
C532        H534   1.083       .  S
C532        N533   1.352       .  A
C535        H536   1.077       .  S
C540        C542   1.529       .  S
C540        C544   1.521       .  S
C540        C543   1.534       .  S
C540        C713   1.518       .  S
C541        C545   1.558       .  S
C541        C547   1.559       .  S
C541        C546   1.538       .  S
C541        C723   1.532       .  S
C542        C550   1.369       .  A
C542        C545   1.394       .  A
C543        C554   1.373       .  A
C543        C546   1.391       .  A
C544        C558   1.370       .  A
C544        C547   1.393       .  A
C545        C548   1.392       .  A
C546        C552   1.380       .  A
C547        C555   1.391       .  A
C548        H561   1.081       .  S
C548        N549   1.365       .  A
N549        C550   1.347       .  A
N549        C701   1.439       .  S
C550        H551   1.082       .  S
C552        H562   1.082       .  S
C552        N553   1.360       .  A
N553        C554   1.356       .  A
N553        C741   1.438       .  S
C554        H560   1.081       .  S
C555        H557   1.079       .  S
C555        N556   1.365       .  A
N556        C558   1.351       .  A
N556        C705   1.444       .  S
C558        H559   1.082       .  S
C563        C565   1.551       .  S
C563        C567   1.544       .  S
C563        C566   1.539       .  S
C563        C674   1.532       .  S
C564        C568   1.526       .  S
C564        C570   1.534       .  S
C564        C569   1.538       .  S
C564        C684   1.521       .  S
C565        C573   1.384       .  A
C566        C577   1.381       .  A
C567        C581   1.380       .  A
C568        C571   1.373       .  A
C569        C575   1.376       .  A
C570        C578   1.380       .  A
C571        H584   1.082       .  S
C571        N572   1.351       .  A
N572        C698   1.440       .  S
C573        H574   1.078       .  S
C575        H585   1.079       .  S
C575        N576   1.354       .  A
N576        C815   1.441       .  S
C577        H583   1.082       .  S
C578        H580   1.081       .  S
C578        N579   1.355       .  A
N579        C693   1.441       .  S
C581        H582   1.081       .  S
C586        C588   1.561       .  S
C586        C590   1.562       .  S
C586        C589   1.539       .  S
C586        C677   1.528       .  S
C587        C591   1.521       .  S
C587        C593   1.532       .  S
C587        C592   1.535       .  S
C587        C687   1.514       .  S
C588        C596   1.396       .  A
C588        C591   1.389       .  A
C589        C600   1.380       .  A
C589        C592   1.388       .  A
C590        C604   1.392       .  A
C590        C593   1.397       .  A
C591        C594   1.370       .  A
C592        C598   1.376       .  A
C593        C601   1.376       .  A
C594        H607   1.083       .  S
C594        N595   1.349       .  A
N595        C596   1.368       .  A
N595        C665   1.446       .  S
C596        H597   1.079       .  S
C598        H608   1.081       .  S
C598        N599   1.360       .  A
N599        C600   1.362       .  A
N599        C797   1.445       .  S
C600        H606   1.082       .  S
C601        H603   1.081       .  S
C601        N602   1.355       .  A
N602        C604   1.361       .  A
N602        C669   1.448       .  S
C604        H605   1.080       .  S
O609       Cu617   2.044   1_655  S
O609        C619   1.283       .  A
O610       Cu617   2.040   1_565  S
O610        C620   1.284       .  A
O611       Cu617   1.980       .  S
O611        C621   1.272       .  A
O612       Cu617   1.969   1_665  S
O612        C622   1.271       .  A
O613       Cu618   2.039   1_665  S
O614       Cu618   2.047       .  S
O615       Cu618   1.972   1_565  S
O616       Cu618   1.977   1_655  S
C619        C842   1.475       .  S
C620        C697   1.472       .  S
C622        C734   1.474       .  S
O623       Cu631   2.015   1_565  S
O623        C633   1.277       .  A
O624       Cu631   2.014   1_655  S
O624        C634   1.278       .  A
O625       Cu631   2.037   1_665  S
O625        C635   1.283       .  A
O626       Cu631   2.040       .  S
O626        C636   1.281       .  A
O627       Cu632   1.983       .  S
O627        C636   1.274       .  A
O628       Cu632   1.992   1_665  S
O628        C635   1.273       .  A
O629       Cu632   2.021   1_655  S
O629        C634   1.279       .  A
O630       Cu632   2.025   1_565  S
O630        C633   1.280       .  A
Cu631      Cu632   2.373       .  S
C633        C670   1.482       .  S
C634        C804   1.481       .  S
C635        C706   1.479       .  S
C636        C752   1.473       .  S
O637       Cu645   1.984       .  S
O638       Cu645   2.000       .  S
O639       Cu645   2.028       .  S
O640       Cu645   2.025       .  S
O641       Cu646   1.988       .  S
O641        C650   1.273       .  A
O642       Cu646   1.987       .  S
O642        C649   1.273       .  A
O643       Cu646   2.033       .  S
O643        C648   1.281       .  A
O644       Cu646   2.037       .  S
O644        C647   1.282       .  A
C647        C730   1.486       .  S
C649        C694   1.473       .  S
C650        C846   1.477       .  S
O651       Cu659   1.993       .  S
O651        C661   1.273       .  A
O652       Cu659   1.987       .  S
O652        C662   1.274       .  A
O653       Cu659   2.030       .  S
O653        C663   1.283       .  A
O654       Cu659   2.026       .  S
O654        C664   1.280       .  A
O655       Cu660   1.987       .  S
O655        C664   1.275       .  A
O656       Cu660   1.992       .  S
O656        C663   1.272       .  A
O657       Cu660   2.038       .  S
O657        C662   1.282       .  A
O658       Cu660   2.041       .  S
O658        C661   1.284       .  A
Cu659      Cu660   2.373       .  S
C661        C666   1.482       .  S
C662        C808   1.480       .  S
C663        C702   1.478       .  S
C664        C747   1.477       .  S
C665        C666   1.341       .  D
C665        H667   1.088       .  S
C666        H668   1.084       .  S
C669        C670   1.352       .  D
C669        H671   1.087       .  S
C670        H672   1.083       .  S
C673        C674   1.404       .  A
C673        C678   1.398       .  A
C673        H679   1.076       .  S
C674        C675   1.409       .  A
C675        C676   1.398       .  A
C675        H680   1.081       .  S
C676        C677   1.405       .  A
C676        H681   1.078       .  S
C677        C678   1.408       .  A
C678        H682   1.079       .  S
C683        C684   1.404       .  A
C683        C688   1.393       .  A
C683        H689   1.083       .  S
C684        C685   1.405       .  A
C685        C686   1.393       .  A
C685        H690   1.078       .  S
C686        C687   1.404       .  A
C686        H691   1.081       .  S
C687        C688   1.408       .  A
C688        H692   1.081       .  S
C693        C694   1.340       .  D
C694        H696   1.084       .  S
C697        C698   1.337       .  D
C698        H700   1.087       .  S
C701        C702   1.338       .  D
C701        H703   1.087       .  S
C702        H704   1.085       .  S
C705        C706   1.342       .  D
C705        H707   1.087       .  S
C706        H708   1.084       .  S
C709        C710   1.407       .  A
C709        C714   1.394       .  A
C709        H715   1.079       .  S
C710        C711   1.403       .  A
C711        C712   1.390       .  A
C711        H716   1.082       .  S
C712        C713   1.405       .  A
C712        H717   1.082       .  S
C713        C714   1.404       .  A
C714        H718   1.079       .  S
C719        C720   1.406       .  A
C719        C724   1.400       .  A
C719        H725   1.076       .  S
C720        C721   1.410       .  A
C721        C722   1.402       .  A
C721        H726   1.081       .  S
C722        C723   1.408       .  A
C722        H727   1.081       .  S
C723        C724   1.407       .  A
C724        H728   1.077       .  S
C729        C730   1.353       .  D
C730        H732   1.084       .  S
C733        C734   1.342       .  D
C733        H735   1.087       .  S
C737        C738   1.404       .  A
C737        C742   1.391       .  A
C737        H743   1.081       .  S
C738        C739   1.408       .  A
C739        C740   1.400   1_545  A
C739        H744   1.082       .  S
C740        C741   1.404       .  A
C740        H745   1.082       .  S
C741        C742   1.404   1_565  A
C742        H746   1.082       .  S
C747        C748   1.350       .  D
C747        H749   1.084       .  S
C748        H750   1.087       .  S
C751        C752   1.345       .  D
C751        H753   1.086       .  S
C752        H754   1.081       .  S
C755        C756   1.403       .  A
C755        C760   1.391       .  A
C755        H761   1.082       .  S
C757        C758   1.397       .  A
C757        H762   1.082       .  S
C758        H763   1.081       .  S
C759        C760   1.403   1_565  A
C760        H764   1.083       .  S
C765        C766   1.402       .  A
C765        C770   1.394       .  A
C765        H771   1.080       .  S
C766        C767   1.409       .  A
C767        C768   1.397       .  A
C767        H772   1.082       .  S
C768        C769   1.405       .  A
C768        H773   1.082       .  S
C769        C770   1.408       .  A
C770        H774   1.080       .  S
C775        C776   1.404       .  A
C775        C780   1.402       .  A
C775        H781   1.075       .  S
C776        C777   1.410       .  A
C777        C778   1.399       .  A
C777        H782   1.081       .  S
C778        C779   1.406       .  A
C778        H783   1.081       .  S
C779        C780   1.410       .  A
C780        H784   1.076       .  S
C785        C786   1.343   1_556  D
C785        H787   1.084       .  S
C789        C790   1.342   1_556  D
C789        H791   1.087       .  S
C793        C794   1.405       .  A
C793        C798   1.397   1_655  A
C793        H799   1.082       .  S
C794        C795   1.407   1_655  A
C795        C796   1.401       .  A
C795        H800   1.082       .  S
C796        C797   1.407       .  A
C796        H801   1.082       .  S
C797        C798   1.406       .  A
C798        H802   1.082       .  S
C803        C804   1.350       .  D
C803        H805   1.087       .  S
C804        H806   1.084       .  S
C807        C808   1.353       .  D
C807        H809   1.087       .  S
C808        H810   1.083       .  S
C811        C812   1.407   1_455  A
C811        C816   1.398       .  A
C811        H817   1.082       .  S
C813        C814   1.403   1_655  A
C813        H818   1.082       .  S
C814        H819   1.081       .  S
C815        C816   1.404       .  A
C816        H820   1.082       .  S
C821        C822   1.406       .  A
C821        C826   1.401       .  A
C821        H827   1.080       .  S
C822        C823   1.408       .  A
C823        C824   1.399       .  A
C823        H828   1.080       .  S
C824        C825   1.406       .  A
C824        H829   1.081       .  S
C825        C826   1.409       .  A
C826        H830   1.078       .  S
C831        C832   1.407       .  A
C831        C836   1.395       .  A
C831        H837   1.081       .  S
C832        C833   1.405       .  A
C833        C834   1.398       .  A
C833        H838   1.078       .  S
C834        C835   1.407       .  A
C834        H839   1.079       .  S
C835        C836   1.405       .  A
C836        H840   1.081       .  S
C841        C842   1.342       .  D
C841        H843   1.087       .  S
C845        C846   1.342       .  D
C846        H848   1.083       .  S
