geometry optimzed in LAMMPS
_audit_creation_date              2020-12-01 
_audit_creation_method            'lammps2cif' 
_symmetry_space_group_name_H-M    'P1' 
_symmetry_Int_Tables_number       1 
_symmetry_cell_setting            triclinic 
loop_ 
_symmetry_equiv_pos_as_xyz 
  x,y,z 
_cell_length_a                    29.56409187 
_cell_length_b                    29.771195228372175 
_cell_length_c                    29.56662135612013 
_cell_angle_alpha                 90.24127671025076 
_cell_angle_beta                  86.13268946169121 
_cell_angle_gamma                 89.20220963512688 
loop_ 
_atom_site_label 
_atom_site_type_symbol 
_atom_site_fract_x 
_atom_site_fract_y 
_atom_site_fract_z 
_atom_site_charge 
O1          O  0.51771828  0.08580533  0.18641766    -0.79400
O2          O  0.04790734  0.49982258  0.35510381    -0.79400
O3          O  0.46322749  0.08878518  0.29099796    -0.79400
O4          O  0.07161000  0.48474715  0.19269490    -0.79300
O5          O  0.04040372  0.07553681  0.28504385    -0.79500
O6          O  0.07959915  0.01788757  0.19257229    -0.79400
O7          O  0.08089452  0.47797423  0.28846845    -0.79400
O8          O  0.44451410  0.09118913  0.20293873    -0.79400
C9          C  0.48094718  0.10833160  0.18705726     1.10300
C10         C  0.08327696  0.48901511  0.33061328     1.10200
C11         C  0.50528163  0.09632268  0.29594079     1.10300
C12         C  0.06810836  0.48424856  0.14944432     1.10200
O13         O  0.50094640  0.46356467  0.15090623    -0.79400
O14         O  0.46512388  0.53294390  0.34430307    -0.79400
O15         O  0.40417957  0.00644321  0.20677224    -0.79400
O16         O  0.01439801  0.40538290  0.28815333    -0.79400
O17         O  0.97565026  0.44995728  0.33364130    -0.79400
O18         O  0.45315285  0.02440680  0.14905056    -0.79400
O19         O  0.01377350  0.40671847  0.19927683    -0.79300
O20         O  0.41160883  0.00424356  0.29936869    -0.79400
Co21       Co  0.51527953  0.01986198  0.17344492     1.51500
Co22       Co  0.00744734  0.50387233  0.30876204     1.51700
Co23       Co  0.43400966  0.04412613  0.24985044     1.51600
Co24       Co  0.03725626  0.45085897  0.24349069     1.51500
O25         O  0.99312997  0.01717222  0.23841153    -1.41300
C26         C  0.97739002  0.40930773  0.17997991     1.10200
C27         C  0.42443125  0.01217861  0.33828880     1.10300
C28         C  0.41444429  0.01045278  0.16463081     1.10300
C29         C  0.98742834  0.41076794  0.32227959     1.10200
O30         O  0.45698568  0.15504566  0.03186097    -0.79400
O31         O  0.96340824  0.29012260  0.41018304    -0.79400
O32         O  0.40008750  0.29654359  0.00563114    -0.79400
O33         O  0.04985843  0.20203815  0.39468604    -0.79300
O34         O  0.42041021  0.33424643  0.46066983    -0.79500
O35         O  0.47816927  0.18725711  0.42468650    -0.79400
O36         O  0.03701352  0.29181478  0.39338054    -0.79400
O37         O  0.40928990  0.20176596  0.00612439    -0.79400
C38         C  0.42055559  0.16162118  0.01532480     1.10300
C39         C  0.99670667  0.30048969  0.38319218     1.10200
C40         C  0.40794263  0.33814281  0.01044951     1.10300
C41         C  0.01070780  0.19171953  0.38283505     1.10200
O42         O  0.05214158  0.15195823  0.96953216    -0.79400
O43         O  0.01852673  0.30560008  0.07407352    -0.79400
O44         O  0.45591453  0.21172056  0.09362557    -0.79400
O45         O  0.07904020  0.30068470  0.47872057    -0.79400
O46         O  0.02399317  0.34455056  0.45807228    -0.79400
O47         O  0.52693724  0.20389527  0.06593908    -0.79400
O48         O  0.09196322  0.21050307  0.48082338    -0.79300
O49         O  0.43237159  0.30174715  0.09443529    -0.79400
Co50       Co  0.50075724  0.19605859  0.00764531     1.51500
Co51       Co  0.97318598  0.30310540  0.47425720     1.51700
Co52       Co  0.42836559  0.25306591  0.04656361     1.51600
Co53       Co  0.06149377  0.25081805  0.44034392     1.51500
O54         O  0.47982581  0.26526856  0.49290651    -1.41300
C55         C  0.08650285  0.16874770  0.47913268     1.10200
C56         C  0.46742755  0.31738001  0.11079743     1.10300
C57         C  0.49731736  0.19928010  0.09836874     1.10300
C58         C  0.06300039  0.33946098  0.47252045     1.10200
O59         O  0.30533459  0.98266779  0.07934250    -0.79400
O60         O  0.13802814  0.44964224  0.51518285    -0.79400
O61         O  0.20375982  0.04678925  0.09112631    -0.79400
O62         O  0.28185004  0.43212098  0.43245550    -0.79300
O63         O  0.19735458  0.46964259  0.07354372    -0.79500
O64         O  0.29415188  0.42601284  0.01797432    -0.79400
O65         O  0.19890272  0.42407944  0.47504735    -0.79400
O66         O  0.29433415  0.05574116  0.08326330    -0.79400
C67         C  0.30942492  0.01947252  0.09954638     1.10300
C68         C  0.15787467  0.41885209  0.49182576     1.10200
C69         C  0.19359623  0.00799300  0.10670540     1.10300
C70         C  0.29687779  0.40613195  0.46166195     1.10200
O71         O  0.33450482  0.97940654  0.45096107    -0.79400
O72         O  0.15196728  0.03167066  0.53509759    -0.79400
O73         O  0.28769442  0.08638325  0.98971847    -0.79400
O74         O  0.20695507  0.47400535  0.39914341    -0.79400
O75         O  0.17265556  0.51122127  0.45725772    -0.79400
O76         O  0.34397866  0.04505726  0.01209711    -0.79400
O77         O  0.27742968  0.52635375  0.42600789    -0.79300
O78         O  0.19990432  0.08356310  0.99811908    -0.79400
Co79       Co  0.31721727  0.98284043  0.01367022     1.51500
Co80       Co  0.19230805  0.48090753  0.51677678     1.51700
Co81       Co  0.24656455  0.06494951  0.03805456     1.51600
Co82       Co  0.23695552  0.48046684  0.45356980     1.51500
O83         O  0.25267986  0.99923939  0.51074617    -1.41300
C84         C  0.31946269  0.51627467  0.42394424     1.10200
C85         C  0.15978836  0.07387126  0.00912625     1.10300
C86         C  0.32886868  0.08108459  0.99466518     1.10300
C87         C  0.17365654  0.49766449  0.41566249     1.10200
C88         C  0.37265487  0.37272628  0.00333595    -0.15700
C89         C  0.33124577  0.37133736  0.44959286    -0.30800
H90         H  0.37725437  0.40455474  0.02056157     0.13400
H91         H  0.35441190  0.37637615  0.41996870     0.13900
C92         C  0.39570876  0.12140360  0.00686493    -0.15700
C93         C  0.35680507  0.12067365  0.98781242    -0.30800
H94         H  0.33291107  0.16088224  0.50663219     0.13400
H95         H  0.34238738  0.15123574  0.97439535     0.13900
C96         C  0.08888906  0.37904798  0.48222202    -0.15700
C97         C  0.13398847  0.37746671  0.48381999    -0.30800
H98         H  0.07049426  0.41086372  0.48618616     0.13400
H99         H  0.11734871  0.36498067  0.02944820     0.13900
C100        C  0.12510259  0.13981495  0.49072510    -0.15700
C101        C  0.12285511  0.10382853  0.99743014    -0.30800
H102        H  0.16247676  0.15921486  0.97293409     0.13400
H103        H  0.08732987  0.08190986  0.50555502     0.13900
C104        C  0.39350397  0.00728599  0.37909521    -0.15700
C105        C  0.34900976  0.52932575  0.38413310    -0.30800
H106        H  0.40958430  0.51012841  0.41324615     0.13400
H107        H  0.33304237  0.02311019  0.34790215     0.13900
C108        C  0.13424191  0.50827305  0.38967976    -0.15700
C109        C  0.12804056  0.48895481  0.34964892    -0.30800
H110        H  0.11229569  0.02292009  0.40258822     0.13400
H111        H  0.15538831  0.46972895  0.33201837     0.13900
C112        C  0.10897359  0.48514904  0.11953514    -0.15700
C113        C  0.16584943  0.00569881  0.15016284    -0.30800
H114        H  0.10488006  0.48069600  0.08374094     0.13400
H115        H  0.15995538  0.03743786  0.16806446     0.13900
C116        C  0.38007248  0.00187074  0.13252917    -0.15700
C117        C  0.33865240  0.02107441  0.13756577    -0.30800
H118        H  0.38394681  0.49504063  0.10644329     0.13400
H119        H  0.32955466  0.04312305  0.16624171     0.13900
C120        C  0.00211108  0.17624616  0.33722078    -0.15700
C121        C  0.51901210  0.13665695  0.32017932    -0.30800
H122        H  0.45485775  0.14529895  0.35413120     0.13400
H123        H  0.06573370  0.14561261  0.32457533     0.13900
C124        C  0.97286726  0.37202322  0.35103882    -0.15700
C125        C  0.99120836  0.33052869  0.34424297    -0.30800
H126        H  0.95318328  0.37942712  0.38259536     0.13400
H127        H  0.01364510  0.32426923  0.31421644     0.13900
C128        C  0.96067444  0.37169617  0.15261943    -0.15700
C129        C  0.46361695  0.35130209  0.14768114    -0.30800
H130        H  0.46640755  0.40370590  0.10058137     0.13700
H131        H  0.01837070  0.33102790  0.15853519     0.13900
C132        C  0.50928110  0.17000937  0.13643144    -0.15700
C133        C  0.47685698  0.15247221  0.16459792    -0.30800
H134        H  0.54325961  0.15539663  0.13503934     0.13400
H135        H  0.95638295  0.17778092  0.15844570     0.13900
O136        O  0.52554504  0.09645274  0.68528264    -0.79400
O137        O  0.05385621  0.50141386  0.84840336    -0.79400
O138        O  0.46711561  0.10490414  0.79370739    -0.79400
O139        O  0.07330540  0.45036672  0.69833837    -0.79300
O140        O  0.04006311  0.07037161  0.78510174    -0.79500
O141        O  0.07813143  0.00787088  0.68803233    -0.79400
O142        O  0.07918697  0.47592816  0.78134828    -0.79400
O143        O  0.45301870  0.10777808  0.70395032    -0.79400
C144        C  0.49023633  0.12102678  0.68516137     1.10300
C145        C  0.08631064  0.48598386  0.82258049     1.10200
C146        C  0.50904926  0.11175064  0.79987635     1.10300
C147        C  0.09157064  0.48750054  0.68695650     1.10200
O148        O  0.51813524  0.44817743  0.66058192    -0.79400
O149        O  0.46540106  0.51577101  0.84794122    -0.79400
O150        O  0.40707597  0.02389670  0.70731235    -0.79400
O151        O  0.04388785  0.39476175  0.77019574    -0.79400
O152        O  0.99874940  0.43772002  0.81595634    -0.79400
O153        O  0.45626862  0.04099793  0.65021007    -0.79400
O154        O  0.97757202  0.42012842  0.71628910    -0.79300
O155        O  0.41390089  0.02147619  0.79967070    -0.79400
Co156      Co  0.51762744  0.03122433  0.67497694     1.51500
Co157      Co  0.01468966  0.50557650  0.80033162     1.51700
Co158      Co  0.43812898  0.06113849  0.75100380     1.51600
Co159      Co  0.02347283  0.45103021  0.74940752     1.51500
O160        O  0.99289676  0.01191695  0.73532651    -1.41300
C161        C  0.98435671  0.41922243  0.67386246     1.10200
C162        C  0.42617381  0.02748178  0.83914986     1.10300
C163        C  0.41704595  0.02826329  0.66517495     1.10300
C164        C  0.01773501  0.39893329  0.80583971     1.10200
O165        O  0.44550778  0.16618764  0.50980624    -0.79400
O166        O  0.01066858  0.34613569  0.94735983    -0.79400
O167        O  0.39329499  0.31012758  0.52755460    -0.79400
O168        O  0.04737499  0.21839522  0.88104013    -0.79300
O169        O  0.44468087  0.35150276  0.02647752    -0.79500
O170        O  0.48908112  0.18578953  0.93966008    -0.79400
O171        O  0.98933262  0.28795489  0.90725269    -0.79400
O172        O  0.39459303  0.22058906  0.51450505    -0.79400
C173        C  0.40461361  0.17962476  0.50881085     1.10300
C174        C  0.99405475  0.33011950  0.91222340     1.10200
C175        C  0.38750025  0.32694264  0.48917186     1.10300
C176        C  0.01389048  0.19164789  0.88477121     1.10200
O177        O  0.04987627  0.15267200  0.46562917    -0.79400
O178        O  0.98801582  0.32939564  0.53705157    -0.79400
O179        O  0.45864871  0.21055342  0.58309153    -0.79400
O180        O  0.08045173  0.29557635  0.92876478    -0.79400
O181        O  0.07771348  0.30257040  0.00176268    -0.79400
O182        O  0.52540048  0.20632066  0.54898552    -0.79400
O183        O  0.08640570  0.21395781  0.96428620    -0.79300
O184        O  0.46817725  0.30194719  0.58603689    -0.79400
Co185      Co  0.50062666  0.20061223  0.48768233     1.51500
Co186      Co  0.01437531  0.32260797  0.01056521     1.51700
Co187      Co  0.43251179  0.26105796  0.54830355     1.51600
Co188      Co  0.03258452  0.24826450  0.93762320     1.51500
O189        O  0.49043832  0.26200110  0.01070518    -1.41300
C190        C  0.08841329  0.17157428  0.96873084     1.10200
C191        C  0.47485168  0.34260593  0.57581262     1.10300
C192        C  0.49955700  0.19826877  0.58317217     1.10300
C193        C  0.09715030  0.31125853  0.96377233     1.10200
O194        O  0.30246725  0.96945578  0.58363760    -0.79400
O195        O  0.13690662  0.44848551  0.01082978    -0.79400
O196        O  0.20445719  0.03675836  0.59635248    -0.79400
O197        O  0.28542482  0.42209755  0.94548751    -0.79300
O198        O  0.20370263  0.45406216  0.57532356    -0.79500
O199        O  0.28959050  0.41678793  0.50276074    -0.79400
O200        O  0.20020954  0.41921833  0.97943296    -0.79400
O201        O  0.29578702  0.04285882  0.59077538    -0.79400
C202        C  0.30925879  0.00514205  0.60525556     1.10300
C203        C  0.15888173  0.41487325  0.99517672     1.10200
C204        C  0.19377737  0.99714200  0.60919274     1.10300
C205        C  0.30193302  0.40570209  0.98073770     1.10200
O206        O  0.33629146  0.98354261  0.94742696    -0.79400
O207        O  0.15163037  0.03754998  0.02995586    -0.79400
O208        O  0.29654555  0.08270775  0.50340663    -0.79400
O209        O  0.20941733  0.45682922  0.89617482    -0.79400
O210        O  0.17429509  0.50359191  0.94627463    -0.79400
O211        O  0.34772228  0.03154709  0.52103765    -0.79400
O212        O  0.27745150  0.51455670  0.91708493    -0.79300
O213        O  0.20047725  0.08124667  0.50826550    -0.79400
Co214      Co  0.31449750  0.97339741  0.51724793     1.51500
Co215      Co  0.18930408  0.48375657  0.01040753     1.51700
Co216      Co  0.24898585  0.05812722  0.54644271     1.51600
Co217      Co  0.23758491  0.47248304  0.95094377     1.51500
O218        O  0.25306115  0.00360791  0.00757948    -1.41300
C219        C  0.31936100  0.50612095  0.91876002     1.10200
C220        C  0.15972794  0.06915371  0.51644609     1.10300
C221        C  0.33758898  0.07074535  0.50753028     1.10300
C222        C  0.17787670  0.48562307  0.90660786     1.10200
C223        C  0.34145015  0.34269595  0.48215387    -0.15700
C224        C  0.33588359  0.36832709  0.97888774    -0.30800
H225        H  0.31677940  0.33789548  0.51074014     0.13400
H226        H  0.33144340  0.33875529  0.95813589     0.13900
C227        C  0.36744412  0.14763804  0.50421310    -0.15700
C228        C  0.37475521  0.10314534  0.50147648    -0.30800
H229        H  0.40937559  0.09057748  0.02064603     0.13400
H230        H  0.40926281  0.08991079  0.50060006     0.13900
C231        C  0.13292374  0.34519179  0.96135497    -0.15700
C232        C  0.13745497  0.37125871  0.99800100    -0.30800
H233        H  0.14980491  0.35365743  0.92875653     0.13400
H234        H  0.15320718  0.34666959  0.47624028     0.13900
C235        C  0.12892874  0.14513822  0.97891737    -0.15700
C236        C  0.12071245  0.09690100  0.50343568    -0.30800
H237        H  0.15815603  0.15532259  0.49100802     0.13400
H238        H  0.08890131  0.09110026  0.00496508     0.13900
C239        C  0.39429341  0.01988401  0.87886980    -0.15700
C240        C  0.35022548  0.51107464  0.87842205    -0.30800
H241        H  0.40744558  0.48958758  0.91239116     0.13400
H242        H  0.33403195  0.02577344  0.84427183     0.13900
C243        C  0.14294967  0.50020931  0.87647724    -0.15700
C244        C  0.13168723  0.47829857  0.83955254    -0.30800
H245        H  0.11215314  0.01666779  0.89830064     0.13400
H246        H  0.15332503  0.45154307  0.82480078     0.13900
C247        C  0.13978500  0.49297935  0.67246670    -0.15700
C248        C  0.16588799  0.99273840  0.65210210    -0.30800
H249        H  0.15195919  0.52723729  0.67384701     0.13400
H250        H  0.16118285  0.02326445  0.67231053     0.13900
C251        C  0.38235826  0.02267547  0.63214271    -0.15700
C252        C  0.34126414  0.00471491  0.64131953    -0.30800
H253        H  0.39737221  0.48220324  0.59991697     0.13400
H254        H  0.33180444  0.98994959  0.67406009     0.13900
C255        C  0.99899206  0.16597888  0.84594256    -0.15700
C256        C  0.52276961  0.15069191  0.82686972    -0.30800
H257        H  0.46152238  0.15168321  0.86680262     0.13400
H258        H  0.06433145  0.14670018  0.81988509     0.13900
C259        C  0.00979285  0.35939782  0.83559130    -0.15700
C260        C  0.98572660  0.36226866  0.87575399    -0.30800
H261        H  0.02903455  0.32880831  0.82701481     0.13400
H262        H  0.96931152  0.39399095  0.88576789     0.13900
C263        C  0.97030928  0.37830840  0.64914686    -0.15700
C264        C  0.49192141  0.37607465  0.60677661    -0.30800
H265        H  0.46306156  0.35004408  0.66789600     0.13700
H266        H  0.00678946  0.39378408  0.58852833     0.13900
C267        C  0.51520800  0.16931955  0.62001183    -0.15700
C268        C  0.48842782  0.16250900  0.65792427    -0.30800
H269        H  0.54539278  0.14858018  0.61292344     0.13400
H270        H  0.96728346  0.17596292  0.65361745     0.13900
O271        O  0.51612048  0.59286257  0.18285397    -0.79400
O272        O  0.05251472  0.01231145  0.34971863    -0.79400
O273        O  0.46719005  0.60002323  0.29385125    -0.79400
O274        O  0.07167816  0.94583062  0.20479021    -0.79300
O275        O  0.03660452  0.56145429  0.29029552    -0.79500
O276        O  0.02953156  0.48724528  0.13285707    -0.79400
O277        O  0.07604392  0.97576987  0.28732018    -0.79400
O278        O  0.44472589  0.60442338  0.20500925    -0.79400
C279        C  0.48060316  0.61725285  0.18363967     1.10300
C280        C  0.08344413  0.99069718  0.32708756     1.10200
C281        C  0.50964667  0.60318354  0.30045104     1.10300
C282        C  0.09568593  0.97833959  0.18926452     1.10200
O283        O  0.51314680  0.95657943  0.15002271    -0.79400
O284        O  0.46486476  0.02390595  0.34208837    -0.79400
O285        O  0.39837516  0.52273217  0.21134291    -0.79400
O286        O  0.02828395  0.89968990  0.28313225    -0.79400
O287        O  0.99062824  0.95461365  0.32101946    -0.79400
O288        O  0.44607813  0.53536187  0.15120379    -0.79400
O289        O  0.97563964  0.92909043  0.21286123    -0.79300
O290        O  0.40921427  0.51951946  0.30281111    -0.79400
Co291      Co  0.50892271  0.52725452  0.17245184     1.51500
Co292      Co  0.01690085  0.01613110  0.29924370     1.51700
Co293      Co  0.43308118  0.55825741  0.25293304     1.51600
Co294      Co  0.01963445  0.95594480  0.25250464     1.51500
O295        O  0.97854708  0.49949934  0.25224592    -1.41300
C296        C  0.98453091  0.93289932  0.17031078     1.10200
C297        C  0.42376118  0.52505494  0.34137017     1.10300
C298        C  0.40747626  0.52352803  0.16877992     1.10300
C299        C  0.00574165  0.91368067  0.31902320     1.10200
O300        O  0.46849738  0.65541028  0.00459319    -0.79400
O301        O  0.01235628  0.83803457  0.44306636    -0.79400
O302        O  0.40281627  0.79315273  0.98767891    -0.79400
O303        O  0.05281834  0.70560920  0.39516132    -0.79300
O304        O  0.42657303  0.83503186  0.48128383    -0.79500
O305        O  0.48648408  0.68629963  0.43636424    -0.79400
O306        O  0.99230217  0.77583096  0.40872343    -0.79400
O307        O  0.41490495  0.70048719  0.98603939    -0.79400
C308        C  0.42893765  0.66113684  0.99320121     1.10300
C309        C  0.99977074  0.81764087  0.40775198     1.10200
C310        C  0.41132416  0.83473926  0.99055653     1.10300
C311        C  0.01780131  0.68120879  0.39776646     1.10200
O312        O  0.04365620  0.65608417  0.98070128    -0.79400
O313        O  0.96949662  0.84735306  0.05769334    -0.79400
O314        O  0.45691956  0.70645551  0.07428164    -0.79400
O315        O  0.08036100  0.78364275  0.43914027    -0.79400
O316        O  0.07142630  0.79739250  0.51027835    -0.79400
O317        O  0.53004916  0.70306202  0.05265346    -0.79400
O318        O  0.07606958  0.70238049  0.48366812    -0.79300
O319        O  0.43540553  0.79763013  0.07647499    -0.79400
Co320      Co  0.51832798  0.69652378  0.98798230     1.51500
Co321      Co  0.00968815  0.82217198  0.51070497     1.51700
Co322      Co  0.43150436  0.74937573  0.02795123     1.51600
Co323      Co  0.02924653  0.73878535  0.44786474     1.51500
O324        O  0.48549375  0.76159087  0.50874913    -1.41300
C325        C  0.07651742  0.66071083  0.49541428     1.10200
C326        C  0.46976586  0.81623488  0.09147047     1.10300
C327        C  0.49796759  0.69606857  0.08212968     1.10300
C328        C  0.09435196  0.80280995  0.47364708     1.10200
O329        O  0.29865222  0.48862473  0.08437302    -0.79400
O330        O  0.13697339  0.94372143  0.52352329    -0.79400
O331        O  0.19614140  0.54234964  0.09039464    -0.79400
O332        O  0.27997868  0.91845380  0.43906574    -0.79300
O333        O  0.20088909  0.97336442  0.08215712    -0.79500
O334        O  0.29770766  0.92016916  0.01355865    -0.79400
O335        O  0.19482018  0.91517555  0.48072148    -0.79400
O336        O  0.28571582  0.56104368  0.08801002    -0.79400
C337        C  0.30140110  0.52551104  0.10473892     1.10300
C338        C  0.15542580  0.91070450  0.50224982     1.10200
C339        C  0.18624317  0.50175534  0.10030279     1.10300
C340        C  0.29609863  0.89825512  0.47199582     1.10200
O341        O  0.33592883  0.49015088  0.45307254    -0.79400
O342        O  0.15405733  0.53020755  0.54488944    -0.79400
O343        O  0.28281868  0.59507803  0.99780898    -0.79400
O344        O  0.20461666  0.95673083  0.39904825    -0.79400
O345        O  0.16997222  0.99685666  0.45539627    -0.79400
O346        O  0.33947482  0.55155987  0.01769971    -0.79400
O347        O  0.27582778  0.01105655  0.41974512    -0.79300
O348        O  0.19227447  0.58547662  0.00140459    -0.79400
Co349      Co  0.31340651  0.48870986  0.01879422     1.51500
Co350      Co  0.19026290  0.97737157  0.51882949     1.51700
Co351      Co  0.23952339  0.56776514  0.04157694     1.51600
Co352      Co  0.23462307  0.96879429  0.45282752     1.51500
O353        O  0.25480300  0.50243408  0.51467202    -1.41300
C354        C  0.31804501  0.00187569  0.41906241     1.10200
C355        C  0.15264780  0.57313207  0.01218705     1.10300
C356        C  0.32459994  0.58796626  0.00068182     1.10300
C357        C  0.17257827  0.98305445  0.41391559     1.10200
C358        C  0.37624380  0.86951777  0.98407299    -0.15700
C359        C  0.33405680  0.86583068  0.46555063    -0.30800
H360        H  0.38456263  0.90313402  0.99522401     0.13400
H361        H  0.35502210  0.86532138  0.43391600     0.13900
C362        C  0.39962233  0.62178539  0.99293248    -0.15700
C363        C  0.35512268  0.62523061  0.98861439    -0.30800
H364        H  0.33570077  0.66126858  0.51044251     0.13400
H365        H  0.34010679  0.65739731  0.98020125     0.13900
C366        C  0.13004318  0.83760830  0.47075289    -0.15700
C367        C  0.13178221  0.86744816  0.50513058    -0.30800
H368        H  0.14984301  0.84277432  0.43895667     0.13400
H369        H  0.11262433  0.86914062  0.04423778     0.13900
C370        C  0.11970473  0.63811004  0.50544486    -0.15700
C371        C  0.11395607  0.60291740  0.00730887    -0.30800
H372        H  0.15091031  0.66338604  0.00532817     0.13400
H373        H  0.08718284  0.58178373  0.53378361     0.13900
C374        C  0.39392991  0.52097296  0.38284058    -0.15700
C375        C  0.34817790  0.01264850  0.37873196    -0.30800
H376        H  0.40874182  0.99938212  0.41060950     0.13400
H377        H  0.33359564  0.54249127  0.35450549     0.13900
C378        C  0.13622574  0.99885716  0.38625176    -0.15700
C379        C  0.12751133  0.98148408  0.34607847    -0.30800
H380        H  0.10681204  0.52781844  0.40683887     0.13400
H381        H  0.15080031  0.95726509  0.32917453     0.13900
C382        C  0.13897758  0.97067171  0.16169877    -0.15700
C383        C  0.14977379  0.49426221  0.13457064    -0.30800
H384        H  0.14424390  0.93851714  0.14451275     0.13400
H385        H  0.15400910  0.50269820  0.16975021     0.13900
C386        C  0.37263505  0.51212856  0.13789355    -0.15700
C387        C  0.33015431  0.52865436  0.14311073    -0.30800
H388        H  0.39092870  0.98479818  0.10095229     0.13400
H389        H  0.32006006  0.55078435  0.17144801     0.13900
C390        C  0.00355869  0.65469524  0.35919329    -0.15700
C391        C  0.52636439  0.64027198  0.32833717    -0.30800
H392        H  0.46306502  0.65018416  0.36320903     0.13400
H393        H  0.06830680  0.63412591  0.33130227     0.13900
C394        C  0.99812227  0.88643870  0.36092373    -0.15700
C395        C  0.99977121  0.84142307  0.36333906    -0.30800
H396        H  0.99190853  0.90537918  0.39230573     0.13400
H397        H  0.00342190  0.82166759  0.33230208     0.13900
C398        C  0.96833479  0.90071062  0.13746718    -0.15700
C399        C  0.46524124  0.84743025  0.13124066    -0.30800
H400        H  0.50863227  0.89247711  0.09711447     0.13700
H401        H  0.00102056  0.84413529  0.16352140     0.13900
C402        C  0.50860000  0.66901438  0.12233504    -0.15700
C403        C  0.47670776  0.65735860  0.15436549    -0.30800
H404        H  0.54198540  0.65314375  0.12196205     0.13400
H405        H  0.00668521  0.66464813  0.16363261     0.13900
O406        O  0.51610846  0.57956680  0.68913555    -0.79400
O407        O  0.05202315  0.00364198  0.84674474    -0.79400
O408        O  0.45444925  0.58191912  0.79657372    -0.79400
O409        O  0.06732052  0.93656493  0.70039011    -0.79300
O410        O  0.02668295  0.57067711  0.79448005    -0.79500
O411        O  0.06735967  0.52231209  0.68677857    -0.79400
O412        O  0.07500231  0.96661466  0.78446957    -0.79400
O413        O  0.44271087  0.58233783  0.70576331    -0.79400
C414        C  0.47863187  0.60002855  0.68846882     1.10300
C415        C  0.08263028  0.98126792  0.82450572     1.10200
C416        C  0.49371581  0.59412540  0.80701444     1.10300
C417        C  0.09283079  0.96791830  0.68544513     1.10200
O418        O  0.50848160  0.96771693  0.65483886    -0.79400
O419        O  0.46662491  0.03900908  0.84437591    -0.79400
O420        O  0.40916349  0.49252643  0.71017676    -0.79400
O421        O  0.02508762  0.89171804  0.77595027    -0.79400
O422        O  0.98948785  0.94676730  0.81609525    -0.79400
O423        O  0.45622354  0.51348433  0.65291333    -0.79400
O424        O  0.97068514  0.92423178  0.71140522    -0.79300
O425        O  0.41521925  0.49291981  0.80239273    -0.79400
Co426      Co  0.51734892  0.51417383  0.67928264     1.51500
Co427      Co  0.01677277  0.00937185  0.79616035     1.51700
Co428      Co  0.43373796  0.53458926  0.75349371     1.51600
Co429      Co  0.01733294  0.94934906  0.74910465     1.51500
O430        O  0.98791148  0.50826489  0.74002812    -1.41300
C431        C  0.97875199  0.92588892  0.66872801     1.10200
C432        C  0.42623542  0.50216620  0.84171021     1.10300
C433        C  0.41886580  0.49656923  0.66805422     1.10300
C434        C  0.00071077  0.90464000  0.81085593     1.10200
O435        O  0.44819648  0.66260074  0.51680304    -0.79400
O436        O  0.00350883  0.83475064  0.92897001    -0.79400
O437        O  0.39730347  0.80604872  0.54467918    -0.79400
O438        O  0.06568607  0.70939121  0.89770716    -0.79300
O439        O  0.44900624  0.84849604  0.00358047    -0.79500
O440        O  0.50632834  0.68273713  0.92028692    -0.79400
O441        O  0.99495260  0.76754342  0.90387456    -0.79400
O442        O  0.39915153  0.71864581  0.51887124    -0.79400
C443        C  0.40787240  0.67743056  0.51406544     1.10300
C444        C  0.99669994  0.80914538  0.89662947     1.10200
C445        C  0.39283560  0.82668780  0.50828421     1.10300
C446        C  0.03455764  0.68291866  0.88642388     1.10200
O447        O  0.03920011  0.64026884  0.50011103    -0.79400
O448        O  0.00760755  0.81355280  0.57683216    -0.79400
O449        O  0.45576617  0.69949646  0.59179792    -0.79400
O450        O  0.07828876  0.79321125  0.94594243    -0.79400
O451        O  0.05173988  0.83215123  0.00647310    -0.79400
O452        O  0.52533517  0.69833524  0.56492369    -0.79400
O453        O  0.07983281  0.71657780  0.99080591    -0.79300
O454        O  0.46593828  0.78881298  0.60505422    -0.79400
Co455      Co  0.50558330  0.69660524  0.50127960     1.51500
Co456      Co  0.98733727  0.82745664  0.99395331     1.51700
Co457      Co  0.43415626  0.75369259  0.56017015     1.51600
Co458      Co  0.03525821  0.74136685  0.95001597     1.51500
O459        O  0.49326572  0.75864701  0.99223196    -1.41300
C460        C  0.07912678  0.67456952  0.99187007     1.10200
C461        C  0.47137577  0.83053482  0.60111436     1.10300
C462        C  0.49618913  0.68750167  0.59557053     1.10300
C463        C  0.08377939  0.82182454  0.97721367     1.10200
O464        O  0.30446844  0.46051266  0.58230055    -0.79400
O465        O  0.13805125  0.94935589  0.02527144    -0.79400
O466        O  0.20471981  0.52190815  0.60552560    -0.79400
O467        O  0.28235443  0.91829598  0.94270695    -0.79300
O468        O  0.20039865  0.96394244  0.58248788    -0.79500
O469        O  0.28715521  0.91443617  0.51098907    -0.79400
O470        O  0.19717265  0.91788733  0.98577674    -0.79400
O471        O  0.29566322  0.53162967  0.60193253    -0.79400
C472        C  0.30982925  0.49220086  0.60984574     1.10300
C473        C  0.15769812  0.91502826  0.00767074     1.10200
C474        C  0.19467575  0.48006658  0.60855572     1.10300
C475        C  0.30140798  0.90060526  0.97565655     1.10200
O476        O  0.33510791  0.48861349  0.95369629    -0.79400
O477        O  0.14634424  0.53416186  0.02711197    -0.79400
O478        O  0.29649639  0.58518514  0.52245887    -0.79400
O479        O  0.20539096  0.95200296  0.89992447    -0.79400
O480        O  0.17045976  0.99636759  0.95256214    -0.79400
O481        O  0.34811211  0.53118249  0.53068395    -0.79400
O482        O  0.27591290  0.01003154  0.91535981    -0.79300
O483        O  0.20050510  0.58397873  0.52654936    -0.79400
Co484      Co  0.31607053  0.47455444  0.51762447     1.51500
Co485      Co  0.19073531  0.98243259  0.01758356     1.51700
Co486      Co  0.24910408  0.55373802  0.56061333     1.51600
Co487      Co  0.23596129  0.96901226  0.95241523     1.51500
O488        O  0.25044751  0.50816655  0.00779656    -1.41300
C489        C  0.31868525  0.00421126  0.91522896     1.10200
C490        C  0.16023994  0.57017266  0.53280611     1.10300
C491        C  0.33766509  0.57153668  0.52154473     1.10300
C492        C  0.17285906  0.97877819  0.91245975     1.10200
C493        C  0.34743023  0.84498733  0.50245050    -0.15700
C494        C  0.33456200  0.86299308  0.96956259    -0.30800
H495        H  0.32449423  0.84476506  0.53286673     0.13400
H496        H  0.32485012  0.83093637  0.95583706     0.13900
C497        C  0.36965814  0.64686819  0.51053460    -0.15700
C498        C  0.37551011  0.60248542  0.51351992    -0.30800
H499        H  0.41447014  0.58960047  0.00157064     0.13400
H500        H  0.40955316  0.58840497  0.51441110     0.13900
C501        C  0.12626786  0.84705786  0.97718317    -0.15700
C502        C  0.13409388  0.87257264  0.01311286    -0.30800
H503        H  0.14650297  0.85086806  0.94535732     0.13400
H504        H  0.10918192  0.86344930  0.53535614     0.13900
C505        C  0.11829268  0.64744783  0.00300604    -0.15700
C506        C  0.11953018  0.59750374  0.52489120    -0.30800
H507        H  0.15156393  0.65462486  0.49647158     0.13400
H508        H  0.08083357  0.58753422  0.00702462     0.13900
C509        C  0.39392940  0.49907274  0.88048516    -0.15700
C510        C  0.34889794  0.01823580  0.87605863    -0.30800
H511        H  0.40876381  0.01471753  0.91133052     0.13400
H512        H  0.33727147  0.52277404  0.84698578     0.13900
C513        C  0.13588548  0.99152780  0.88361893    -0.15700
C514        C  0.12664557  0.97180206  0.84440969    -0.30800
H515        H  0.12056695  0.52720721  0.88970784     0.13400
H516        H  0.14968186  0.94666887  0.82873937     0.13900
C517        C  0.13673560  0.95881493  0.65990221    -0.15700
C518        C  0.16287003  0.46352023  0.64536887    -0.30800
H519        H  0.14065475  0.92775575  0.64053837     0.13400
H520        H  0.14995084  0.42972826  0.64210811     0.13900
C521        C  0.38532673  0.48497955  0.63544076    -0.15700
C522        C  0.34045471  0.48635726  0.64643073    -0.30800
H523        H  0.39102888  0.03501723  0.59812431     0.13400
H524        H  0.32773994  0.49407633  0.68096479     0.13900
C525        C  0.03775834  0.65441943  0.84476225    -0.15700
C526        C  0.49600167  0.63444809  0.83618394    -0.30800
H527        H  0.56683971  0.64182114  0.83007989     0.13400
H528        H  0.96724388  0.65696528  0.83961473     0.13900
C529        C  0.98598083  0.87384258  0.84804991    -0.15700
C530        C  0.99620379  0.82955207  0.85077929    -0.30800
H531        H  0.97034566  0.89057387  0.87808469     0.13400
H532        H  0.01032289  0.81092890  0.82135320     0.13900
C533        C  0.96089050  0.89195537  0.63797276    -0.15700
C534        C  0.47408093  0.85937242  0.64191508    -0.30800
H535        H  0.45810045  0.91808451  0.60684127     0.13700
H536        H  0.98818449  0.83550568  0.66969093     0.13900
C537        C  0.50735354  0.65595055  0.63185503    -0.15700
C538        C  0.47474092  0.64198374  0.66254755    -0.30800
H539        H  0.54060733  0.63979074  0.62964260     0.13400
H540        H  0.92047608  0.65664330  0.65387207     0.13900
O541        O  0.02432951  0.09291216  0.18437054    -0.79400
O542        O  0.54773721  0.50187897  0.34860329    -0.79400
O543        O  0.97033336  0.10295439  0.28907109    -0.79400
O544        O  0.56320174  0.44494040  0.20017011    -0.79300
O545        O  0.53523068  0.06643856  0.28639902    -0.79500
O546        O  0.57814543  0.01220914  0.19182153    -0.79400
O547        O  0.57085078  0.46879991  0.28452528    -0.79400
O548        O  0.95173893  0.10391116  0.20082594    -0.79400
C549        C  0.98919054  0.11743141  0.18326724     1.10300
C550        C  0.57872592  0.48162299  0.32506868     1.10200
C551        C  0.01302894  0.10779436  0.29304131     1.10300
C552        C  0.58822918  0.47717940  0.18650921     1.10200
O553        O  0.95790643  0.44653161  0.18042924    -0.79400
O554        O  0.96078336  0.53311259  0.35193904    -0.79400
O555        O  0.90570720  0.02173308  0.20794789    -0.79400
O556        O  0.52022844  0.39486604  0.27180221    -0.79400
O557        O  0.48343851  0.44806499  0.31395024    -0.79400
O558        O  0.95553152  0.03470333  0.14960990    -0.79400
O559        O  0.46651619  0.43018393  0.20975775    -0.79300
O560        O  0.91276073  0.02158250  0.29987380    -0.79400
Co561      Co  0.01726249  0.02747869  0.17422541     1.51500
Co562      Co  0.51262350  0.51058248  0.29810640     1.51700
Co563      Co  0.93800468  0.05903104  0.24953041     1.51600
Co564      Co  0.51278363  0.45387155  0.24866435     1.51500
O565        O  0.49162293  0.00601643  0.23703371    -1.41300
C566        C  0.47688017  0.43170114  0.16751955     1.10200
C567        C  0.92543573  0.02869543  0.33894661     1.10300
C568        C  0.91641887  0.02249629  0.16570159     1.10300
C569        C  0.49310827  0.40610823  0.30542571     1.10200
O570        O  0.96363501  0.15184276  0.01406001    -0.79400
O571        O  0.50346423  0.33421780  0.41312821    -0.79400
O572        O  0.90643028  0.29358364  0.99776983    -0.79400
O573        O  0.54160742  0.20586503  0.38570195    -0.79300
O574        O  0.93212521  0.35159709  0.47151602    -0.79500
O575        O  0.97770975  0.19020166  0.41154070    -0.79400
O576        O  0.47774632  0.27051722  0.39499553    -0.79400
O577        O  0.91381264  0.20068691  0.99607053    -0.79400
C578        C  0.92533100  0.15999169  0.00215494     1.10300
C579        C  0.48739791  0.31000402  0.38408990     1.10200
C580        C  0.91281045  0.33493194  0.00398516     1.10300
C581        C  0.50463665  0.18394198  0.38831114     1.10200
O582        O  0.54564432  0.15150890  0.99428850    -0.79400
O583        O  0.50538821  0.31055165  0.09003925    -0.79400
O584        O  0.96532096  0.20758505  0.07980567    -0.79400
O585        O  0.56908330  0.28743881  0.43243751    -0.79400
O586        O  0.54750001  0.32982496  0.49233026    -0.79400
O587        O  0.03453610  0.19623835  0.04844465    -0.79400
O588        O  0.56992332  0.20732838  0.47121606    -0.79300
O589        O  0.94557740  0.29764407  0.08512853    -0.79400
Co590      Co  0.00648515  0.19406595  0.99018384     1.51500
Co591      Co  0.48416219  0.33249812  0.47750573     1.51700
Co592      Co  0.93664658  0.25034657  0.03603779     1.51600
Co593      Co  0.51943019  0.24063395  0.43804781     1.51500
O594        O  0.00288784  0.24354918  0.48100106    -1.41300
C595        C  0.57071508  0.16466214  0.47819434     1.10200
C596        C  0.98308775  0.31005035  0.09940002     1.10300
C597        C  0.00642875  0.19396394  0.08253848     1.10300
C598        C  0.57805060  0.31593383  0.46309619     1.10200
O599        O  0.80784037  0.98505906  0.08193753    -0.79400
O600        O  0.63403600  0.43899586  0.51118893    -0.79400
O601        O  0.70369125  0.04409316  0.09391351    -0.79400
O602        O  0.78121690  0.41854190  0.43534384    -0.79300
O603        O  0.70215282  0.46696363  0.09269484    -0.79500
O604        O  0.78994145  0.40912178  0.02437120    -0.79400
O605        O  0.69636541  0.40914115  0.47790330    -0.79400
O606        O  0.79352769  0.05767675  0.08526023    -0.79400
C607        C  0.81031195  0.02235537  0.10175390     1.10300
C608        C  0.65519467  0.40508638  0.49480421     1.10200
C609        C  0.69496721  0.00505302  0.10966163     1.10300
C610        C  0.79754351  0.39615959  0.46673349     1.10200
O611        O  0.83590013  0.99240839  0.45184573    -0.79400
O612        O  0.64837668  0.03588790  0.53292919    -0.79400
O613        O  0.78525811  0.08805190  0.99274000    -0.79400
O614        O  0.70311968  0.45420955  0.39779509    -0.79400
O615        O  0.67028573  0.49868153  0.45078331    -0.79400
O616        O  0.84325754  0.04781882  0.01359420    -0.79400
O617        O  0.77099833  0.51150115  0.42345244    -0.79300
O618        O  0.69688915  0.08027379  0.00145345    -0.79400
Co619      Co  0.81879523  0.98462753  0.01599679     1.51500
Co620      Co  0.68785576  0.47172492  0.51231986     1.51700
Co621      Co  0.74508390  0.06425174  0.04072978     1.51600
Co622      Co  0.73288300  0.46518946  0.45271827     1.51500
O623        O  0.75114335  0.00933342  0.50996771    -1.41300
C624        C  0.81367797  0.50635000  0.42425794     1.10200
C625        C  0.65742313  0.06934681  0.01406032     1.10300
C626        C  0.82683554  0.08346876  0.99654060     1.10300
C627        C  0.67135624  0.48164930  0.41050568     1.10200
C628        C  0.87490239  0.36715188  0.99966878    -0.15700
C629        C  0.83724064  0.36624006  0.45818676    -0.30800
H630        H  0.87881216  0.40028263  0.01443346     0.13400
H631        H  0.85691114  0.36875403  0.42588305     0.13900
C632        C  0.89783726  0.12097949  0.99547489    -0.15700
C633        C  0.85453948  0.12301640  0.98751178    -0.30800
H634        H  0.85107053  0.15482531  0.56465090     0.13400
H635        H  0.83829527  0.15498050  0.98048421     0.13900
C636        C  0.62233176  0.33832118  0.46208500    -0.15700
C637        C  0.63255782  0.36187882  0.49873035    -0.30800
H638        H  0.64096763  0.34327716  0.42958674     0.13400
H639        H  0.61055148  0.36184611  0.05085778     0.13900
C640        C  0.61331955  0.14081828  0.48671502    -0.15700
C641        C  0.61925151  0.09960832  0.00651431    -0.30800
H642        H  0.65677851  0.15717391  0.98432870     0.13400
H643        H  0.58034666  0.08201455  0.50907329     0.13900
C644        C  0.89373959  0.02328747  0.37956285    -0.15700
C645        C  0.84301484  0.52408769  0.38678061    -0.30800
H646        H  0.90347852  0.51545102  0.42003837     0.13400
H647        H  0.83280976  0.02862801  0.34603938     0.13900
C648        C  0.63424553  0.49477481  0.38182015    -0.15700
C649        C  0.62345129  0.47313966  0.34398751    -0.30800
H650        H  0.61113474  0.01703662  0.39881827     0.13400
H651        H  0.64584907  0.44719504  0.32883276     0.13900
C652        C  0.63376164  0.46819373  0.16465461    -0.15700
C653        C  0.66656204  0.00244118  0.15260511    -0.30800
H654        H  0.63994558  0.43572839  0.14830530     0.13400
H655        H  0.65910631  0.03414977  0.17009436     0.13900
C656        C  0.88253133  0.01126805  0.13380024    -0.15700
C657        C  0.83948197  0.02616167  0.13962138    -0.30800
H658        H  0.87522499  0.55276293  0.11505504     0.13400
H659        H  0.82859386  0.04709154  0.16864039     0.13900
C660        C  0.48993397  0.15604818  0.35117084    -0.15700
C661        C  0.03072652  0.14743283  0.31542465    -0.30800
H662        H  0.96677903  0.17675407  0.32903039     0.13400
H663        H  0.55483182  0.14458930  0.31942941     0.13900
C664        C  0.47286484  0.37313019  0.33744630    -0.15700
C665        C  0.48412231  0.32923470  0.33857994    -0.30800
H666        H  0.45452607  0.38782156  0.36724112     0.13400
H667        H  0.50161320  0.31247343  0.30962164     0.13900
C668        C  0.46564210  0.39508117  0.13633500    -0.15700
C669        C  0.98671316  0.33517330  0.14225408    -0.30800
H670        H  0.93070767  0.37792116  0.13407652     0.13700
H671        H  0.46584604  0.34079961  0.18259189     0.13900
C672        C  0.01922709  0.16784992  0.12234232    -0.15700
C673        C  0.98830666  0.15906296  0.15637451    -0.30800
H674        H  0.05094469  0.14883753  0.11932290     0.13400
H675        H  0.44278661  0.16680565  0.16500070     0.13900
O676        O  0.02717100  0.08463409  0.67891542    -0.79400
O677        O  0.55412804  0.50149086  0.85631720    -0.79400
O678        O  0.97010549  0.09801162  0.78766359    -0.79400
O679        O  0.58212875  0.44354571  0.70887182    -0.79300
O680        O  0.53871351  0.08182387  0.78935792    -0.79500
O681        O  0.57998887  0.01967142  0.69277081    -0.79400
O682        O  0.58292826  0.47197574  0.79201477    -0.79400
O683        O  0.95573529  0.10076631  0.69742049    -0.79400
C684        C  0.99366922  0.11132410  0.67790968     1.10300
C685        C  0.58745197  0.48378361  0.83332289     1.10200
C686        C  0.01226581  0.10250049  0.79376295     1.10300
C687        C  0.60165243  0.48003292  0.69760184     1.10200
O688        O  0.00524436  0.45187166  0.65391049    -0.79400
O689        O  0.96433952  0.51857764  0.84731548    -0.79400
O690        O  0.90539200  0.01973021  0.70456380    -0.79400
O691        O  0.54791266  0.39035137  0.78063305    -0.79400
O692        O  0.50256767  0.43583255  0.82331375    -0.79400
O693        O  0.95486439  0.03070471  0.64582238    -0.79400
O694        O  0.48651810  0.41530878  0.72099940    -0.79300
O695        O  0.91182299  0.01845810  0.79641098    -0.79400
Co696      Co  0.01612883  0.01978296  0.67014702     1.51500
Co697      Co  0.51861303  0.50334817  0.80556940     1.51700
Co698      Co  0.93877723  0.05560059  0.74634013     1.51600
Co699      Co  0.52962015  0.44631391  0.75700046     1.51500
O700        O  0.49436001  0.02115604  0.73970595    -1.41300
C701        C  0.49568578  0.41570794  0.67884393     1.10200
C702        C  0.92541314  0.02289790  0.83562016     1.10300
C703        C  0.91522407  0.02102998  0.66230214     1.10300
C704        C  0.52105191  0.39640669  0.81549651     1.10200
O705        O  0.92200763  0.19637575  0.48414392    -0.79400
O706        O  0.51085574  0.34686993  0.96081526    -0.79400
O707        O  0.91164335  0.29224113  0.51330225    -0.79400
O708        O  0.54380219  0.21902458  0.89596640    -0.79300
O709        O  0.95005746  0.34883778  0.01854415    -0.79500
O710        O  0.99085479  0.18676285  0.92330202    -0.79400
O711        O  0.48727735  0.28993123  0.92068278    -0.79400
O712        O  0.92216104  0.21218634  0.55539220    -0.79400
C713        C  0.90457288  0.19134694  0.52348249     1.10300
C714        C  0.49460627  0.33170705  0.92513552     1.10200
C715        C  0.90145172  0.32852545  0.49192824     1.10300
C716        C  0.51107296  0.19136300  0.90057637     1.10200
O717        O  0.53323324  0.14453993  0.48100452    -0.79400
O718        O  0.46600990  0.35696147  0.53770072    -0.79400
O719        O  0.01381787  0.22641689  0.57346926    -0.79400
O720        O  0.57770419  0.29346733  0.94814275    -0.79400
O721        O  0.57041294  0.30111499  0.02151292    -0.79400
O722        O  0.99381028  0.16297518  0.54060592    -0.79400
O723        O  0.58079418  0.21181090  0.97859437    -0.79300
O724        O  0.95097490  0.29574414  0.59484002    -0.79400
Co725      Co  0.98589474  0.17897743  0.47512249     1.51500
Co726      Co  0.50812491  0.32423162  0.02490504     1.51700
Co727      Co  0.96838238  0.26120762  0.54067578     1.51600
Co728      Co  0.52768333  0.24826133  0.95239238     1.51500
O729        O  0.99673089  0.26023092  0.99683022    -1.41300
C730        C  0.58219403  0.16991621  0.98689161     1.10200
C731        C  0.97326084  0.32930787  0.57902215     1.10300
C732        C  0.01110925  0.18367218  0.57307971     1.10300
C733        C  0.59285366  0.30787923  0.98457769     1.10200
O734        O  0.80183618  0.98839921  0.58344537    -0.79400
O735        O  0.63812452  0.44234067  0.03688852    -0.79400
O736        O  0.69927812  0.04759244  0.59395323    -0.79400
O737        O  0.78013563  0.40775341  0.95270881    -0.79300
O738        O  0.69795154  0.44732974  0.57195177    -0.79500
O739        O  0.78683309  0.40860192  0.50658926    -0.79400
O740        O  0.69570724  0.41080368  0.99505884    -0.79400
O741        O  0.78879684  0.06099192  0.58926664    -0.79400
C742        C  0.80536319  0.02489770  0.60432481     1.10300
C743        C  0.65669777  0.40831731  0.01742608     1.10200
C744        C  0.69204049  0.00801945  0.60872222     1.10300
C745        C  0.79764284  0.39026259  0.98660031     1.10200
O746        O  0.83785395  0.98515761  0.94937934    -0.79400
O747        O  0.65105271  0.03201443  0.03376817    -0.79400
O748        O  0.78643867  0.09723349  0.49995151    -0.79400
O749        O  0.70440988  0.44516990  0.90977030    -0.79400
O750        O  0.67083322  0.48870084  0.96408448    -0.79400
O751        O  0.84238198  0.05264952  0.51950701    -0.79400
O752        O  0.77743037  0.49895822  0.92555424    -0.79300
O753        O  0.69293707  0.08747807  0.50377442    -0.79400
Co754      Co  0.81546585  0.99013247  0.51802298     1.51500
Co755      Co  0.69161549  0.47446613  0.02829692     1.51700
Co756      Co  0.74190308  0.06993376  0.54339813     1.51600
Co757      Co  0.73573701  0.46029936  0.96208922     1.51500
O758        O  0.75385654  0.00297988  0.01036946    -1.41300
C759        C  0.81961826  0.48998418  0.92554377     1.10200
C760        C  0.65340824  0.07328160  0.51347820     1.10300
C761        C  0.82799209  0.09047481  0.50566543     1.10300
C762        C  0.67285465  0.47265055  0.92354762     1.10200
C763        C  0.85393459  0.34343881  0.49264779    -0.15700
C764        C  0.83536392  0.35718176  0.98155922    -0.30800
H765        H  0.83334857  0.33910459  0.52417988     0.13400
H766        H  0.83093586  0.32553823  0.96412923     0.13900
C767        C  0.86850354  0.15745577  0.53124091    -0.15700
C768        C  0.86001712  0.12756578  0.49822010    -0.30800
H769        H  0.91348777  0.08863863  0.00243243     0.13400
H770        H  0.87868784  0.12878811  0.46533260     0.13900
C771        C  0.63058557  0.33911240  0.98442785    -0.15700
C772        C  0.63314233  0.36610618  0.02066386    -0.30800
H773        H  0.65041809  0.34566938  0.95292639     0.13400
H774        H  0.61249476  0.35702244  0.53050071     0.13900
C775        C  0.62364848  0.14258844  0.99172122    -0.15700
C776        C  0.61260581  0.09868159  0.50260157    -0.30800
H777        H  0.64517010  0.15839513  0.48138627     0.13400
H778        H  0.58586852  0.08585320  0.01480685     0.13900
C779        C  0.89460069  0.01640522  0.87650507    -0.15700
C780        C  0.84942447  0.49946822  0.88474337    -0.30800
H781        H  0.91072290  0.49032019  0.91654131     0.13400
H782        H  0.83290599  0.02574043  0.84523242     0.13900
C783        C  0.63606735  0.48749510  0.89607420    -0.15700
C784        C  0.63091915  0.47489908  0.85348940    -0.30800
H785        H  0.61273682  0.01644305  0.90596037     0.13400
H786        H  0.65682422  0.45458682  0.83494139     0.13900
C787        C  0.64849164  0.48318374  0.67843659    -0.15700
C788        C  0.66656101  0.00411383  0.65295620    -0.30800
H789        H  0.66401315  0.51591051  0.68114971     0.13400
H790        H  0.66249276  0.03498037  0.67271330     0.13900
C791        C  0.87976505  0.01326834  0.63109394    -0.15700
C792        C  0.83664977  0.02695285  0.64047956    -0.30800
H793        H  0.88595653  0.47009630  0.60752519     0.13400
H794        H  0.82675226  0.04506019  0.67165626     0.13900
C795        C  0.49540003  0.16540051  0.86204877    -0.15700
C796        C  0.02807354  0.14237514  0.81792244    -0.30800
H797        H  0.96308604  0.15838175  0.84687211     0.13400
H798        H  0.55806780  0.16063293  0.82415102     0.13900
C799        C  0.51160629  0.35836595  0.84706421    -0.15700
C800        C  0.48926956  0.36405152  0.88792437    -0.30800
H801        H  0.52824876  0.32626476  0.83894246     0.13400
H802        H  0.47585838  0.39720666  0.89740443     0.13900
C803        C  0.48230441  0.37698775  0.65151633    -0.15700
C804        C  0.98493482  0.36944913  0.60606840    -0.30800
H805        H  0.94887714  0.35419203  0.66746860     0.13700
H806        H  0.50944927  0.40432411  0.59075724     0.13900
C807        C  0.02426932  0.15607581  0.61190679    -0.15700
C808        C  0.99573796  0.15246002  0.64928740    -0.30800
H809        H  0.04978298  0.12994568  0.60471281     0.13400
H810        H  0.45800951  0.18320661  0.66382739     0.13900
O811        O  0.02634507  0.56001764  0.18816299    -0.79400
O812        O  0.55076700  0.00080879  0.34809141    -0.79400
O813        O  0.97081585  0.59555886  0.29653490    -0.79400
O814        O  0.57301516  0.93922581  0.20280645    -0.79300
O815        O  0.53702412  0.57121801  0.28965723    -0.79500
O816        O  0.57241527  0.51698640  0.18759390    -0.79400
O817        O  0.57429126  0.96236686  0.28702207    -0.79400
O818        O  0.96179126  0.59429320  0.20565842    -0.79400
C819        C  0.00037283  0.59380866  0.18436429     1.10300
C820        C  0.58168688  0.97840629  0.32652417     1.10200
C821        C  0.01298380  0.59570200  0.30183658     1.10300
C822        C  0.59592446  0.97311764  0.18889883     1.10200
O823        O  0.01002413  0.96378795  0.15409444    -0.79400
O824        O  0.96629967  0.03934618  0.34295293    -0.79400
O825        O  0.89566834  0.52479368  0.21727908    -0.79400
O826        O  0.52738176  0.88661399  0.27569074    -0.79400
O827        O  0.49097158  0.94150432  0.31580279    -0.79400
O828        O  0.94447332  0.52759181  0.15786017    -0.79400
O829        O  0.47773709  0.91764998  0.20481329    -0.79300
O830        O  0.90331629  0.52756169  0.30911200    -0.79400
Co831      Co  0.99554406  0.50018769  0.18807659     1.51500
Co832      Co  0.51560811  0.00472539  0.29727121     1.51700
Co833      Co  0.93580998  0.55610539  0.25692084     1.51600
Co834      Co  0.51892912  0.94434555  0.24845750     1.51500
O835        O  0.48802820  0.51674773  0.23796516    -1.41300
C836        C  0.49120962  0.92200986  0.16324706     1.10200
C837        C  0.91862912  0.52919232  0.34793358     1.10300
C838        C  0.90422486  0.52752075  0.17501200     1.10300
C839        C  0.50293463  0.89974824  0.31078631     1.10200
O840        O  0.92748817  0.67472165  0.97139689    -0.79400
O841        O  0.50844706  0.83467349  0.43283254    -0.79400
O842        O  0.90251736  0.79208872  0.04636638    -0.79400
O843        O  0.55129737  0.70508714  0.40086143    -0.79300
O844        O  0.94916667  0.85437509  0.51297433    -0.79500
O845        O  0.99164865  0.68141262  0.43457264    -0.79400
O846        O  0.48749293  0.76969820  0.41164299    -0.79400
O847        O  0.90822774  0.69908605  0.04039993    -0.79400
C848        C  0.90075577  0.67508535  0.00598319     1.10300
C849        C  0.49670673  0.80949216  0.40185008     1.10200
C850        C  0.89354449  0.81524171  0.01142482     1.10300
C851        C  0.51394977  0.68391561  0.40072904     1.10200
O852        O  0.55241289  0.64295083  0.98418958    -0.79400
O853        O  0.50767372  0.81238937  0.06962706    -0.79400
O854        O  0.99399167  0.70017456  0.08534238    -0.79400
O855        O  0.57651714  0.78688379  0.45075658    -0.79400
O856        O  0.55445617  0.82596502  0.51256041    -0.79400
O857        O  0.98785670  0.64942163  0.03242967    -0.79400
O858        O  0.57624032  0.70316107  0.48900159    -0.79300
O859        O  0.98729157  0.78856921  0.09589403    -0.79400
Co860      Co  0.98801598  0.69312919  0.97991486     1.51500
Co861      Co  0.49054706  0.83002032  0.49845657     1.51700
Co862      Co  0.95161322  0.74613716  0.06176722     1.51600
Co863      Co  0.52767593  0.73851690  0.45455552     1.51500
O864        O  0.98614764  0.75983248  0.50169086    -1.41300
C865        C  0.57617597  0.66008998  0.49413260     1.10200
C866        C  0.97983509  0.82994488  0.09439478     1.10300
C867        C  0.99658898  0.65952491  0.07278480     1.10300
C868        C  0.58467336  0.81572568  0.48151809     1.10200
O869        O  0.79952892  0.46975874  0.09092956    -0.79400
O870        O  0.63838672  0.94813323  0.52524441    -0.79400
O871        O  0.70528579  0.54060893  0.09938802    -0.79400
O872        O  0.78395014  0.92446980  0.44492928    -0.79300
O873        O  0.70363151  0.97035184  0.08542503    -0.79500
O874        O  0.80102269  0.92109725  0.01679189    -0.79400
O875        O  0.69798120  0.91900569  0.48577502    -0.79400
O876        O  0.79493319  0.54354517  0.09230729    -0.79400
C877        C  0.80434249  0.50654830  0.11081072     1.10300
C878        C  0.65824639  0.91443058  0.50682818     1.10200
C879        C  0.69403142  0.50246636  0.11573874     1.10300
C880        C  0.80276021  0.90807534  0.47852733     1.10200
O881        O  0.83157267  0.48206218  0.45418433    -0.79400
O882        O  0.64883154  0.52263029  0.53676465    -0.79400
O883        O  0.79612375  0.57577101  0.00152367    -0.79400
O884        O  0.70606411  0.95498015  0.40135103    -0.79400
O885        O  0.66947637  0.99823049  0.45392090    -0.79400
O886        O  0.84803239  0.52853850  0.02489588    -0.79400
O887        O  0.77499385  0.01497176  0.41771448    -0.79300
O888        O  0.70340311  0.57638424  0.00712911    -0.79400
Co889      Co  0.81524350  0.46931240  0.02548268     1.51500
Co890      Co  0.69006952  0.98379140  0.51878036     1.51700
Co891      Co  0.74992689  0.55615631  0.04712392     1.51600
Co892      Co  0.73557546  0.97290326  0.45425946     1.51500
O893        O  0.75022749  0.49386544  0.51210752    -1.41300
C894        C  0.81795608  0.01046942  0.41823948     1.10200
C895        C  0.66305726  0.56676082  0.01898239     1.10300
C896        C  0.83700266  0.56578016  0.00711056     1.10300
C897        C  0.67251513  0.98056731  0.41382438     1.10200
C898        C  0.84903967  0.83898720  0.01045901    -0.15700
C899        C  0.83730671  0.87195035  0.47371332    -0.30800
H900        H  0.82987764  0.84360473  0.04283286     0.13400
H901        H  0.82995992  0.84054941  0.45705961     0.13900
C902        C  0.86351130  0.64306426  0.00866538    -0.15700
C903        C  0.87161071  0.59970145  0.99718504    -0.30800
H904        H  0.83767433  0.65351203  0.49502983     0.13400
H905        H  0.90554059  0.58847710  0.98534933     0.13900
C906        C  0.62679032  0.84291763  0.47836127    -0.15700
C907        C  0.63521380  0.87090657  0.51274772    -0.30800
H908        H  0.64557376  0.84600222  0.44568844     0.13400
H909        H  0.61886003  0.85919883  0.03856362     0.13900
C910        C  0.61815424  0.63461225  0.50308606    -0.15700
C911        C  0.62550566  0.59642333  0.00950995    -0.30800
H912        H  0.66328772  0.65378717  0.98856198     0.13400
H913        H  0.58346339  0.57506856  0.51906166     0.13900
C914        C  0.88824371  0.52362011  0.38862611    -0.15700
C915        C  0.84807796  0.02239785  0.37789993    -0.30800
H916        H  0.90869592  0.01913340  0.41191753     0.13400
H917        H  0.82761377  0.53393324  0.35593824     0.13900
C918        C  0.63517303  0.99182031  0.38484811    -0.15700
C919        C  0.62588267  0.97036798  0.34656375    -0.30800
H920        H  0.61123607  0.52078268  0.39598289     0.13400
H921        H  0.64916264  0.94500517  0.33171356     0.13900
C922        C  0.64040222  0.96684172  0.16327806    -0.15700
C923        C  0.66284850  0.50197467  0.15662783    -0.30800
H924        H  0.64728849  0.93475662  0.14639108     0.13400
H925        H  0.65604979  0.53410956  0.17352388     0.13900
C926        C  0.86826901  0.53237853  0.14515630    -0.15700
C927        C  0.83142109  0.50724842  0.14954241    -0.30800
H928        H  0.89448165  0.99529796  0.10196314     0.13400
H929        H  0.82692456  0.48229817  0.17612904     0.13900
C930        C  0.49871363  0.65898941  0.36122711    -0.15700
C931        C  0.03184558  0.63167067  0.32958762    -0.30800
H932        H  0.96736223  0.64864055  0.35962661     0.13400
H933        H  0.56264426  0.64568715  0.32809982     0.13900
C934        C  0.48870450  0.87072349  0.34945136    -0.15700
C935        C  0.49821251  0.82694104  0.35480688    -0.30800
H936        H  0.47308840  0.88889465  0.37865081     0.13400
H937        H  0.51207398  0.80630985  0.32669996     0.13900
C938        C  0.48848126  0.88606924  0.12857687    -0.15700
C939        C  0.98326693  0.85791605  0.13557414    -0.30800
H940        H  0.95242998  0.91483496  0.10853229     0.13700
H941        H  0.44189467  0.84046761  0.16022382     0.13900
C942        C  0.00758592  0.62320510  0.10568705    -0.15700
C943        C  0.01012267  0.63043655  0.15086454    -0.30800
H944        H  0.00746818  0.58876545  0.09340500     0.13400
H945        H  0.44338787  0.67334079  0.15438717     0.13900
O946        O  0.00107736  0.58475674  0.68229036    -0.79400
O947        O  0.55535118  0.01497832  0.85018878    -0.79400
O948        O  0.95267461  0.58612326  0.79519573    -0.79400
O949        O  0.57001691  0.94787183  0.70472697    -0.79300
O950        O  0.52848540  0.56881520  0.79882172    -0.79500
O951        O  0.57894517  0.51578573  0.69929283    -0.79400
O952        O  0.57691746  0.97740963  0.78769698    -0.79400
O953        O  0.92935997  0.58640728  0.70621689    -0.79400
C954        C  0.96291176  0.60457077  0.68476345     1.10300
C955        C  0.58518554  0.99169440  0.82758039     1.10200
C956        C  0.99326911  0.59753783  0.80274481     1.10300
C957        C  0.59488984  0.97962156  0.68952782     1.10200
O958        O  0.00463325  0.95586579  0.65093483    -0.79400
O959        O  0.96655388  0.03191863  0.83989354    -0.79400
O960        O  0.89792846  0.49609116  0.71455258    -0.79400
O961        O  0.52840784  0.90213829  0.78076543    -0.79400
O962        O  0.49380375  0.95732716  0.82124278    -0.79400
O963        O  0.94057306  0.51588412  0.65345632    -0.79400
O964        O  0.47435802  0.93347092  0.71400054    -0.79300
O965        O  0.91133742  0.49664169  0.80517736    -0.79400
Co966      Co  0.00382366  0.51859456  0.67320822     1.51500
Co967      Co  0.51863606  0.01999187  0.80042692     1.51700
Co968      Co  0.92644121  0.53867300  0.75492526     1.51600
Co969      Co  0.51951158  0.95919684  0.75294990     1.51500
O970        O  0.49549073  0.50357271  0.74409709    -1.41300
C971        C  0.48329015  0.93671297  0.67145726     1.10200
C972        C  0.92477317  0.50429584  0.84392767     1.10300
C973        C  0.90562369  0.49722126  0.67189180     1.10300
C974        C  0.50677864  0.91584229  0.81712888     1.10200
O975        O  0.94813000  0.65880050  0.51575673    -0.79400
O976        O  0.51597633  0.83846933  0.93679486    -0.79400
O977        O  0.90061974  0.80220491  0.49577868    -0.79400
O978        O  0.56842968  0.71172130  0.88750758    -0.79300
O979        O  0.92366565  0.82325698  0.98031523    -0.79500
O980        O  0.99851209  0.67950328  0.91284009    -0.79400
O981        O  0.50136565  0.77560691  0.90061336    -0.79400
O982        O  0.90280423  0.71151257  0.49514422    -0.79400
C983        C  0.90933582  0.67085004  0.50388491     1.10300
C984        C  0.50520680  0.81782541  0.90100205     1.10200
C985        C  0.91110949  0.84298878  0.49910897     1.10300
C986        C  0.53648478  0.68387025  0.88634378     1.10200
O987        O  0.53836390  0.64058496  0.49395280    -0.79400
O988        O  0.47402739  0.84891033  0.56248609    -0.79400
O989        O  0.94256695  0.71097783  0.58471738    -0.79400
O990        O  0.58742463  0.78923858  0.93465312    -0.79400
O991        O  0.57488010  0.80118479  0.00598301    -0.79400
O992        O  0.01559464  0.70218357  0.56597155    -0.79400
O993        O  0.58849896  0.70609593  0.97558955    -0.79300
O994        O  0.93401644  0.80477205  0.58517479    -0.79400
Co995      Co  0.00502855  0.69509885  0.50132847     1.51500
Co996      Co  0.51177081  0.82166701  0.00371603     1.51700
Co997      Co  0.92389711  0.75710246  0.53733220     1.51600
Co998      Co  0.53990230  0.74096035  0.93990230     1.51500
O999        O  0.99225834  0.75866571  0.00267656    -1.41300
C1000       C  0.58916569  0.66350525  0.98334299     1.10200
C1001       C  0.97060545  0.81914982  0.59987544     1.10300
C1002       C  0.98195435  0.69644646  0.59389025     1.10300
C1003       C  0.59956801  0.80714820  0.97054307     1.10200
O1004       O  0.79818173  0.45569530  0.58406512    -0.79400
O1005       O  0.64208200  0.94193267  0.02781858    -0.79400
O1006       O  0.69739295  0.51615918  0.60008279    -0.79400
O1007       O  0.78643546  0.91924095  0.94551879    -0.79300
O1008       O  0.70033141  0.97408007  0.58328792    -0.79500
O1009       O  0.79654806  0.92744441  0.51630687    -0.79400
O1010       O  0.70109426  0.91548926  0.98463759    -0.79400
O1011       O  0.78707495  0.52732330  0.60041653    -0.79400
C1012       C  0.80065913  0.48846706  0.61098182     1.10300
C1013       C  0.66210510  0.90969269  0.00652688     1.10200
C1014       C  0.68976050  0.47392568  0.60472046     1.10300
C1015       C  0.80438019  0.90101554  0.97912073     1.10200
O1016       O  0.83621161  0.46996627  0.95896545    -0.79400
O1017       O  0.65438943  0.53032592  0.03930975    -0.79400
O1018       O  0.79276362  0.57894986  0.51935830    -0.79400
O1019       O  0.70791355  0.95360141  0.90087125    -0.79400
O1020       O  0.67157561  0.99302861  0.95682016    -0.79400
O1021       O  0.84333792  0.52520118  0.53146365    -0.79400
O1022       O  0.77720432  0.01174182  0.91821716    -0.79300
O1023       O  0.69642496  0.57577685  0.51870001    -0.79400
Co1024     Co  0.81162254  0.46766323  0.51911775     1.51500
Co1025     Co  0.69283886  0.97864974  0.02095535     1.51700
Co1026     Co  0.74309109  0.54727720  0.55587734     1.51600
Co1027     Co  0.73838249  0.96907273  0.95409606     1.51500
O1028       O  0.75374315  0.49462013  0.01693157    -1.41300
C1029       C  0.81985188  0.00525406  0.91699267     1.10200
C1030       C  0.65595813  0.56248592  0.52413216     1.10300
C1031       C  0.83392174  0.56567061  0.52157689     1.10300
C1032       C  0.67467548  0.97882306  0.91550876     1.10200
C1033       C  0.87714799  0.87847190  0.49223747    -0.15700
C1034       C  0.83578901  0.86160527  0.97375755    -0.30800
H1035       H  0.88409195  0.91142981  0.50606495     0.13400
H1036       H  0.85349617  0.85606259  0.94077847     0.13900
C1037       C  0.87026212  0.63973602  0.50349894    -0.15700
C1038       C  0.87305480  0.59661930  0.51610581    -0.30800
H1039       H  0.83128593  0.65324866  0.02575454     0.13400
H1040       H  0.90589790  0.58314172  0.52423309     0.13900
C1041       C  0.63649426  0.84014901  0.97077942    -0.15700
C1042       C  0.64014977  0.86587403  0.00793854    -0.30800
H1043       H  0.65531655  0.84831899  0.93907429     0.13400
H1044       H  0.61488330  0.86781071  0.54459732     0.13900
C1045       C  0.63020156  0.63853497  0.99383505    -0.15700
C1046       C  0.61627551  0.59115990  0.51532370    -0.30800
H1047       H  0.65046988  0.65161022  0.50001744     0.13400
H1048       H  0.59197165  0.58237898  0.01620563     0.13900
C1049       C  0.89490533  0.49672121  0.88504270    -0.15700
C1050       C  0.84895382  0.01739932  0.87617151    -0.30800
H1051       H  0.91031730  0.01022008  0.90812899     0.13400
H1052       H  0.83377577  0.50853816  0.85379472     0.13900
C1053       C  0.63729913  0.99389010  0.88829938    -0.15700
C1054       C  0.62901717  0.97981978  0.84666690    -0.30800
H1055       H  0.60978744  0.50821112  0.91368336     0.13400
H1056       H  0.65259470  0.95701300  0.82814374     0.13900
C1057       C  0.63786594  0.97034724  0.66249576    -0.15700
C1058       C  0.66331271  0.45610044  0.64457393    -0.30800
H1059       H  0.64104646  0.93906738  0.64341385     0.13400
H1060       H  0.64712049  0.42386227  0.64058700     0.13900
C1061       C  0.87287834  0.47923806  0.64168981    -0.15700
C1062       C  0.82809415  0.48479295  0.65020431    -0.30800
H1063       H  0.89019158  0.00003927  0.59756764     0.13400
H1064       H  0.81497848  0.49952421  0.68222832     0.13900
C1065       C  0.53496998  0.65246379  0.84756463    -0.15700
C1066       C  0.99883779  0.64014249  0.82799564    -0.30800
H1067       H  0.07030021  0.63970079  0.83310834     0.13400
H1068       H  0.46424230  0.64706072  0.85247397     0.13900
C1069       C  0.49781941  0.88710352  0.85727863    -0.15700
C1070       C  0.50334852  0.84243354  0.85767865    -0.30800
H1071       H  0.48912412  0.90449281  0.88917667     0.13400
H1072       H  0.50997381  0.82409556  0.82602441     0.13900
C1073       C  0.46740127  0.90405177  0.63886594    -0.15700
C1074       C  0.97037622  0.84771082  0.64111113    -0.30800
H1075       H  0.94870357  0.90443749  0.60641099     0.13700
H1076       H  0.48449218  0.84462805  0.67318477     0.13900
C1077       C  0.98910600  0.66642731  0.63314683    -0.15700
C1078       C  0.95528768  0.64610383  0.65783237    -0.30800
H1079       H  0.02374423  0.65520969  0.63705999     0.13400
H1080       H  0.44140676  0.65797208  0.66384696     0.13900
loop_ 
_geom_bond_atom_site_label_1 
_geom_bond_atom_site_label_2 
_geom_bond_distance 
_geom_bond_site_symmetry_2 
_ccdc_geom_bond_type 
O1            C9   1.268       .  A
O1          Co21   2.002       .  S
O2           C10   1.268       .  A
O2          Co22   1.882       .  S
O3           C11   1.284       .  A
O3          Co23   2.038       .  S
O4           C12   1.290       .  A
O4          Co24   2.035       .  S
O5          C551   1.258       .  A
O5         Co292   1.946       .  S
O6          C282   1.265   1_545  A
O6         Co561   1.973       .  S
O7           C10   1.294       .  A
O7          Co24   2.082       .  S
O8            C9   1.261       .  A
O8          Co23   1.988       .  S
C9          C133   1.482       .  S
C10         C109   1.473       .  S
C11         O545   1.264       .  A
C11         C121   1.472       .  S
C12         O276   1.274       .  A
C12         C112   1.449       .  S
O13         C566   1.274       .  A
O13        Co291   2.020       .  S
O14         C297   1.257       .  A
O14        Co562   1.997       .  S
O15          C28   1.269       .  A
O15         Co23   1.956       .  S
O16          C29   1.251   1_455  A
O16         Co24   1.988       .  S
O17          C29   1.251       .  A
O17         Co22   1.990   1_655  S
O18          C28   1.280       .  A
O18         Co21   2.021       .  S
O19          C26   1.253   1_455  A
O19         Co24   2.013       .  S
O20          C27   1.258       .  A
O20         Co23   1.974       .  S
Co21        O546   1.982       .  S
Co21        O283   2.008   1_545  S
Co21        O565   2.008       .  S
Co22        O275   1.991       .  S
Co22        O554   2.003   1_455  S
Co22        O295   1.932   1_455  S
Co23        O565   2.046       .  S
Co24        O295   2.246   1_455  S
O25        Co561   2.008   1_655  S
O25        Co292   1.975   1_655  S
O25        Co563   2.046       .  S
O25        Co294   2.030   1_645  S
C26         O553   1.241       .  A
C26         C128   1.488       .  S
C27         O284   1.262       .  A
C27         C104   1.473       .  S
C28         C116   1.461       .  S
C29         C124   1.487       .  S
O30          C38   1.226       .  A
O30         Co50   1.899       .  S
O31          C39   1.267       .  A
O31         Co51   1.973       .  S
O32          C40   1.272       .  A
O32         Co52   1.990       .  S
O33          C41   1.273       .  A
O33         Co53   2.027       .  S
O34         C175   1.265       .  A
O34        Co591   1.982       .  S
O35         C581   1.289       .  A
O35        Co185   2.058       .  S
O36          C39   1.272   1_455  A
O36         Co53   2.017       .  S
O37          C38   1.272       .  A
O37         Co52   2.044       .  S
C38          C92   1.443       .  S
C39         C125   1.477       .  S
C40         O169   1.282       .  A
C40          C88   1.481       .  S
C41         O575   1.251   1_455  A
C41         C120   1.463       .  S
O42         C190   1.227       .  A
O42        Co590   1.898       .  S
O43         C596   1.251   1_455  A
O43        Co186   1.958       .  S
O44          C57   1.291       .  A
O44         Co52   2.063       .  S
O45          C58   1.261       .  A
O45         Co53   1.961       .  S
O46          C58   1.264       .  A
O46         Co51   1.992   1_455  S
O47          C57   1.263       .  A
O47         Co50   1.951       .  S
O48          C55   1.257       .  A
O48         Co53   1.952       .  S
O49          C56   1.266       .  A
O49         Co52   2.032       .  S
Co50        O170   2.084   1_554  S
Co50        O582   1.885   1_554  S
Co50        O189   1.983       .  S
Co51        O574   1.879       .  S
Co51        O178   2.088       .  S
Co51        O594   1.984   1_655  S
Co52        O189   2.078       .  S
Co53        O594   2.056       .  S
O54        Co185   2.015       .  S
O54        Co591   2.058       .  S
O54        Co187   2.086       .  S
O54        Co593   2.061       .  S
C55         O177   1.278       .  A
C55         C100   1.480       .  S
C56         O583   1.256       .  A
C56         C129   1.481       .  S
C57         C132   1.485       .  S
C58          C96   1.452       .  S
O59          C67   1.257   1_565  A
O59         Co79   1.950       .  S
O60          C68   1.260       .  A
O60         Co80   1.870       .  S
O61          C69   1.277       .  A
O61         Co81   2.028       .  S
O62          C70   1.261       .  A
O62         Co82   2.013       .  S
O63         C339   1.264       .  A
O63        Co215   1.945       .  S
O64         C205   1.260   1_554  A
O64        Co349   1.960       .  S
O65          C68   1.291       .  A
O65         Co82   2.110       .  S
O66          C67   1.271       .  A
O66         Co81   2.026       .  S
C67         C117   1.464       .  S
C68          C97   1.455       .  S
C69         O333   1.266   1_545  A
C69         C113   1.479       .  S
C70         O199   1.258       .  A
C70          C89   1.467       .  S
O71         C354   1.277   1_565  A
O71        Co214   2.018       .  S
O72         C220   1.264       .  A
O72        Co350   1.999   1_545  S
O73          C86   1.244       .  A
O73         Co81   1.930   1_556  S
O74          C87   1.272       .  A
O74         Co82   1.899       .  S
O75          C87   1.291       .  A
O75         Co80   2.094       .  S
O76          C86   1.280   1_554  A
O76         Co79   2.024   1_545  S
O77          C84   1.272       .  A
O77         Co82   1.971       .  S
O78          C85   1.247   1_556  A
O78         Co81   1.951   1_556  S
Co79        O334   1.961       .  S
Co79        O206   2.002   1_554  S
Co79        O218   2.007   1_565  S
Co80        O198   1.957       .  S
Co80        O342   1.985       .  S
Co80        O353   1.961       .  S
Co81        O218   2.034       .  S
Co82        O353   2.024       .  S
O83        Co214   1.995       .  S
O83        Co350   1.965       .  S
O83        Co216   2.040   1_565  S
O83        Co352   2.040       .  S
C84         O341   1.279       .  A
C84         C105   1.475       .  S
C85         O207   1.265       .  A
C85         C101   1.461   1_554  S
C86          C93   1.456       .  S
C87         C108   1.470       .  S
C88          H90   1.088       .  S
C88         C224   1.353   1_554  D
C89          H91   1.087       .  S
C89         C223   1.336       .  D
C92         H229   1.089       .  S
C92          C93   1.315   1_554  D
C93          H95   1.087       .  S
H94         C227   1.087       .  S
C96          H98   1.088       .  S
C96          C97   1.338       .  D
C97         H234   1.086       .  S
H99         C232   1.088   1_554  S
C100        H237   1.087       .  S
C100        C236   1.339       .  D
C101        H238   1.087   1_556  S
C101        C235   1.358       .  D
H102        C235   1.086       .  S
H103        C236   1.087       .  S
C104        H376   1.087   1_545  S
C104        C375   1.348       .  D
C105        H377   1.086       .  S
C105        C374   1.346       .  D
H106        C374   1.087       .  S
H107        C375   1.087       .  S
C108        H380   1.087       .  S
C108        C109   1.339       .  D
C109        H111   1.087       .  S
H110        C378   1.088   1_545  S
C112        H114   1.081       .  S
C112        C383   1.344       .  D
C113        H115   1.087       .  S
C113        C382   1.351   1_545  D
C116        H388   1.088   1_545  S
C116        C117   1.343       .  D
C117        H119   1.087       .  S
H118        C386   1.088       .  S
C120        H662   1.088   1_455  S
C120        C661   1.330       .  D
C121        H663   1.087       .  S
C121        C660   1.337       .  D
H122        C660   1.088       .  S
H123        C661   1.088       .  S
C124        H126   1.086       .  S
C124        C125   1.351       .  D
C125        H127   1.086   1_655  S
C128        H670   1.087       .  S
C128        C669   1.346       .  D
C129        H671   1.086       .  S
C129        C668   1.348       .  D
H130        C668   1.088       .  S
H131        C669   1.087   1_455  S
C132        H134   1.087       .  S
C132        C133   1.340       .  D
C133        H675   1.088       .  S
H135        C673   1.087       .  S
O136        C144   1.267       .  A
O136       Co156   1.984       .  S
O137        C145   1.265       .  A
O137       Co157   1.896       .  S
O138        C146   1.284       .  A
O138       Co158   2.047       .  S
O139        C147   1.274       .  A
O139       Co159   2.037       .  S
O140        C686   1.266       .  A
O140       Co427   1.972       .  S
O141        C417   1.261   1_545  A
O141       Co696   1.970       .  S
O142        C145   1.286       .  A
O142       Co159   2.096       .  S
O143        C144   1.267       .  A
O143       Co158   2.002       .  S
C144        C268   1.479       .  S
C145        C244   1.479       .  S
C146        O680   1.264       .  A
C146        C256   1.481       .  S
C147        O411   1.252       .  A
C147        C247   1.472       .  S
O148        C701   1.281       .  A
O148       Co426   2.038       .  S
O149        C432   1.257       .  A
O149       Co697   1.974       .  S
O150        C163   1.268       .  A
O150       Co158   1.979       .  S
O151        C164   1.269       .  A
O151       Co159   1.892       .  S
O152        C164   1.302   1_655  A
O152       Co157   2.126   1_655  S
O153        C163   1.276       .  A
O153       Co156   2.019       .  S
O154        C161   1.257       .  A
O154       Co159   1.963   1_655  S
O155        C162   1.258       .  A
O155       Co158   1.969       .  S
Co156       O681   1.977       .  S
Co156       O418   2.007   1_545  S
Co156       O700   2.015       .  S
Co157       O410   1.981       .  S
Co157       O689   1.999   1_455  S
Co157       O430   2.000   1_455  S
Co158       O700   2.039       .  S
Co159       O430   2.020   1_455  S
O160       Co696   2.017   1_655  S
O160       Co427   1.977   1_655  S
O160       Co698   2.056       .  S
O160       Co429   2.041   1_645  S
C161        O688   1.283   1_655  A
C161        C263   1.496       .  S
C162        O419   1.268       .  A
C162        C239   1.476       .  S
C163        C251   1.474       .  S
C164        C259   1.484       .  S
O165        C173   1.270       .  A
O165       Co185   2.010       .  S
O166        C174   1.272   1_455  A
O166       Co186   2.008   1_556  S
O167        C175   1.264       .  A
O167       Co187   1.978       .  S
O168        C176   1.278       .  A
O168       Co188   1.913       .  S
O169       Co726   2.031       .  S
O170        C716   1.300       .  A
O171        C174   1.274       .  A
O171       Co188   1.990   1_655  S
O172        C173   1.259       .  A
O172       Co187   1.971       .  S
C173        C227   1.477       .  S
C174        C260   1.476       .  S
C175        C223   1.462       .  S
C176        O710   1.297   1_455  A
C176        C255   1.472   1_455  S
O177       Co725   2.038   1_455  S
O178        C731   1.287       .  A
O179        C192   1.259       .  A
O179       Co187   2.001       .  S
O180        C193   1.267       .  A
O180       Co188   2.016       .  S
O181        C193   1.256   1_554  A
O181       Co186   1.958       .  S
O182        C192   1.251       .  A
O182       Co185   2.008       .  S
O183        C190   1.270       .  A
O183       Co188   2.080       .  S
O184        C191   1.264       .  A
O184       Co187   2.005       .  S
Co185       O717   1.919       .  S
Co186       O709   2.044   1_455  S
Co186       O729   1.984   1_454  S
Co188       O729   2.012   1_455  S
O189       Co726   1.983       .  S
O189       Co728   2.019   1_554  S
C190        C235   1.473       .  S
C191        O718   1.250       .  A
C191        C264   1.468       .  S
C192        C267   1.486       .  S
C193        C231   1.471       .  S
O194        C202   1.263   1_565  A
O194       Co214   1.975       .  S
O195        C203   1.255   1_554  A
O195       Co215   1.883       .  S
O196        C204   1.278   1_545  A
O196       Co216   2.021       .  S
O197        C205   1.276       .  A
O197       Co217   2.046       .  S
O198        C474   1.260       .  A
O199       Co484   1.960       .  S
O200        C203   1.286       .  A
O200       Co217   2.093       .  S
O201        C202   1.272       .  A
O201       Co216   2.018       .  S
C202        C252   1.473       .  S
C203        C232   1.453       .  S
C204        O468   1.267       .  A
C204        C248   1.473       .  S
C205        C224   1.486       .  S
O206        C489   1.272   1_565  A
O207       Co485   2.012   1_545  S
O208        C221   1.274       .  A
O208       Co216   1.982       .  S
O209        C222   1.279       .  A
O209       Co217   1.929       .  S
O210        C222   1.284       .  A
O210       Co215   2.063   1_556  S
O211        C221   1.273       .  A
O211       Co214   2.009   1_545  S
O212        C219   1.265       .  A
O212       Co217   1.963       .  S
O213        C220   1.270       .  A
O213       Co216   2.000       .  S
Co214       O469   1.956       .  S
Co215       O477   1.991       .  S
Co215       O488   1.954       .  S
Co217       O488   2.045   1_556  S
O218       Co485   1.960   1_545  S
O218       Co487   2.022   1_544  S
C219        O476   1.272       .  A
C219        C240   1.461       .  S
C220        C236   1.482       .  S
C221        C228   1.475       .  S
C222        C243   1.471       .  S
C223        H225   1.090       .  S
C224        H226   1.085       .  S
C227        C228   1.340       .  D
C228        H230   1.087       .  S
C231        H233   1.087       .  S
C231        C232   1.345       .  D
C239        H511   1.087       .  S
C239        C510   1.352       .  D
C240        H512   1.086       .  S
C240        C509   1.341       .  D
H241        C509   1.086       .  S
H242        C510   1.087       .  S
C243        H515   1.088       .  S
C243        C244   1.333       .  D
C244        H246   1.086       .  S
H245        C513   1.087   1_545  S
C247        H249   1.088       .  S
C247        C518   1.334       .  D
C248        H250   1.088   1_565  S
C248        C517   1.347       .  D
C251        H523   1.088       .  S
C251        C252   1.346       .  D
C252        H254   1.086   1_545  S
H253        C521   1.088       .  S
C255        H797   1.087       .  S
C255        C796   1.342   1_655  D
C256        H798   1.087       .  S
C256        C795   1.342       .  D
H257        C795   1.087       .  S
H258        C796   1.087       .  S
C259        H261   1.087       .  S
C259        C260   1.344   1_455  D
C260        H262   1.087       .  S
C263        H805   1.086       .  S
C263        C804   1.341       .  D
C264        H806   1.087       .  S
C264        C803   1.334       .  D
H265        C803   1.086       .  S
H266        C804   1.087   1_455  S
C267        H269   1.086       .  S
C267        C268   1.346       .  D
C268        H810   1.087       .  S
H270        C808   1.087       .  S
O271        C279   1.267       .  A
O271       Co291   1.993       .  S
O272        C280   1.263   1_545  A
O272       Co292   1.886       .  S
O273        C281   1.288       .  A
O273       Co293   2.053       .  S
O274        C282   1.277       .  A
O274       Co294   2.034       .  S
O275        C821   1.260       .  A
O276       Co831   1.894   1_455  S
O277        C280   1.289       .  A
O277       Co294   2.108       .  S
O278        C279   1.262       .  A
O278       Co293   1.995       .  S
C279        C403   1.485       .  S
C280        C379   1.476       .  S
C281        O815   1.266       .  A
C281        C391   1.485       .  S
C282        C382   1.485       .  S
O283        C836   1.273       .  A
O284       Co832   2.009       .  S
O285        C298   1.269       .  A
O285       Co293   1.968       .  S
O286        C299   1.279       .  A
O286       Co294   1.929       .  S
O287        C299   1.292   1_655  A
O287       Co292   2.087   1_665  S
O288        C298   1.276       .  A
O288       Co291   2.013       .  S
O289        C296   1.274       .  A
O289       Co294   1.983   1_655  S
O290        C297   1.256       .  A
O290       Co293   1.975       .  S
Co291       O816   1.979       .  S
Co291       O835   2.020       .  S
Co292       O824   2.022   1_455  S
Co293       O835   2.050       .  S
O295       Co831   1.930       .  S
O295       Co833   2.091       .  S
C296        O823   1.272   1_655  A
C296        C398   1.469       .  S
C297        C374   1.468       .  S
C298        C386   1.464       .  S
C299        C394   1.490   1_455  S
O300        C308   1.248   1_554  A
O300       Co320   1.967   1_554  S
O301        C309   1.285   1_455  A
O301       Co321   2.053       .  S
O302        C310   1.270       .  A
O302       Co322   1.989   1_556  S
O303        C311   1.271       .  A
O303       Co323   1.926       .  S
O304        C445   1.263       .  A
O304       Co861   1.995       .  S
O305        C851   1.287       .  A
O305       Co455   2.060       .  S
O306        C309   1.267       .  A
O306       Co323   1.974   1_655  S
O307        C308   1.261       .  A
O307       Co322   1.995   1_556  S
C308        C362   1.467       .  S
C309        C395   1.494       .  S
C310        O439   1.275   1_556  A
C310        C358   1.477       .  S
C311        O845   1.292   1_455  A
C311        C390   1.472       .  S
O312        C460   1.254       .  A
O312       Co860   1.969   1_455  S
O313        C866   1.259       .  A
O313       Co456   2.007   1_554  S
O314        C327   1.285       .  A
O314       Co322   2.050       .  S
O315        C328   1.263       .  A
O315       Co323   2.035       .  S
O316        C328   1.251       .  A
O316       Co321   1.958       .  S
O317        C327   1.264       .  A
O317       Co320   1.975   1_554  S
O318        C325   1.290       .  A
O318       Co323   2.092       .  S
O319        C326   1.269       .  A
O319       Co322   2.036       .  S
Co320       O440   2.096       .  S
Co320       O852   1.874       .  S
Co320       O459   1.983       .  S
Co321       O844   2.015   1_455  S
Co321       O448   1.970       .  S
Co321       O864   2.014   1_455  S
Co322       O459   2.069   1_554  S
Co323       O864   2.060   1_455  S
O324       Co455   2.023       .  S
O324       Co861   2.067       .  S
O324       Co457   2.091       .  S
O324       Co863   2.072       .  S
C325        O447   1.267       .  A
C325        C370   1.483       .  S
C326        O853   1.259       .  A
C326        C399   1.493       .  S
C327        C402   1.487       .  S
C328        C366   1.488       .  S
O329        C337   1.256       .  A
O329       Co349   1.959       .  S
O330        C338   1.262       .  A
O330       Co350   1.876       .  S
O331        C339   1.278       .  A
O331       Co351   2.022       .  S
O332        C340   1.263       .  A
O332       Co352   2.019       .  S
O333       Co485   1.972       .  S
O334        C475   1.258   1_554  A
O335        C338   1.298       .  A
O335       Co352   2.132       .  S
O336        C337   1.265       .  A
O336       Co351   2.009       .  S
C337        C387   1.466       .  S
C338        C367   1.474       .  S
C339        C383   1.449       .  S
C340        O469   1.258       .  A
C340        C359   1.472       .  S
O341       Co484   2.017       .  S
O342        C490   1.256       .  A
O343        C356   1.259   1_556  A
O343       Co351   1.946   1_556  S
O344        C357   1.275       .  A
O344       Co352   1.908       .  S
O345        C357   1.289       .  A
O345       Co350   2.089       .  S
O346        C356   1.282       .  A
O346       Co349   2.033       .  S
O347        C354   1.273       .  A
O347       Co352   1.979   1_545  S
O348        C355   1.254       .  A
O348       Co351   1.962       .  S
Co349       O476   1.987   1_554  S
Co349       O488   1.990       .  S
Co350       O468   1.968       .  S
Co351       O488   2.043       .  S
O353       Co484   1.989       .  S
O353       Co486   2.037       .  S
C354        C375   1.479       .  S
C355        O477   1.255       .  A
C355        C371   1.453       .  S
C356        C363   1.470   1_554  S
C357        C378   1.467       .  S
C358        H360   1.089       .  S
C358        C494   1.348       .  D
C359        H361   1.087       .  S
C359        C493   1.337       .  D
C362        H499   1.087   1_556  S
C362        C363   1.333       .  D
C363        H365   1.087       .  S
H364        C497   1.086       .  S
C366        H368   1.086       .  S
C366        C367   1.351       .  D
C367        H504   1.087       .  S
H369        C502   1.088       .  S
C370        H507   1.086       .  S
C370        C506   1.341       .  D
C371        H508   1.087       .  S
C371        C505   1.339       .  D
H372        C505   1.087       .  S
H373        C506   1.087       .  S
C378        C379   1.336       .  D
C379        H381   1.086       .  S
C382        H384   1.086       .  S
C383        H385   1.085       .  S
C386        C387   1.341       .  D
C387        H389   1.087       .  S
C390        H932   1.087   1_455  S
C390        C931   1.347       .  D
C391        H933   1.086       .  S
C391        C930   1.342       .  D
H392        C930   1.087       .  S
H393        C931   1.086       .  S
C394        H396   1.087       .  S
C394        C395   1.343       .  D
C395        H397   1.086   1_655  S
C398        H940   1.087       .  S
C398        C939   1.342       .  D
C399        H941   1.086       .  S
C399        C938   1.348       .  D
H400        C938   1.089       .  S
H401        C939   1.087   1_455  S
C402        H404   1.088       .  S
C402        C403   1.341       .  D
C403        H945   1.088       .  S
H405        C943   1.086       .  S
O406        C414   1.258       .  A
O406       Co426   1.967       .  S
O407        C415   1.263   1_545  A
O407       Co427   1.887       .  S
O408        C416   1.278       .  A
O408       Co428   2.024       .  S
O409        C417   1.270       .  A
O409       Co429   2.024       .  S
O410        C956   1.272   1_455  A
O411       Co966   1.952       .  S
O412        C415   1.295       .  A
O412       Co429   2.127       .  S
O413        C414   1.269       .  A
O413       Co428   2.015       .  S
C414        C538   1.475       .  S
C415        C514   1.488       .  S
C416        O950   1.275       .  A
C416        C526   1.480       .  S
C417        C517   1.478       .  S
O418        C971   1.273       .  A
O419       Co967   2.018       .  S
O420        C433   1.266       .  A
O420       Co428   1.968       .  S
O421        C434   1.273       .  A
O421       Co429   1.911       .  S
O422        C434   1.299   1_655  A
O422       Co427   2.112   1_665  S
O423        C433   1.275       .  A
O423       Co426   2.016       .  S
O424        C431   1.270       .  A
O424       Co429   1.983   1_655  S
O425        C432   1.259       .  A
O425       Co428   1.964       .  S
Co426       O951   1.953       .  S
Co426       O970   2.008       .  S
Co427       O959   2.008   1_455  S
Co428       O970   2.036       .  S
O430       Co966   2.026   1_655  S
O430       Co968   2.039       .  S
C431        O958   1.276   1_655  A
C431        C533   1.483       .  S
C432        C509   1.446       .  S
C433        C521   1.472       .  S
C434        C529   1.481   1_455  S
O435        C443   1.273       .  A
O435       Co455   2.015       .  S
O436        C444   1.249   1_455  A
O436       Co456   1.962   1_455  S
O437        C445   1.255       .  A
O437       Co457   1.963       .  S
O438        C446   1.280       .  A
O438       Co458   1.971       .  S
O439       Co996   2.010       .  S
O440        C986   1.298       .  A
O441        C444   1.259       .  A
O441       Co458   2.023   1_655  S
O442        C443   1.256       .  A
O442       Co457   1.960       .  S
C443        C497   1.469       .  S
C444        C530   1.489       .  S
C445        C493   1.463       .  S
C446        O980   1.284   1_455  A
C446        C525   1.490       .  S
O447       Co995   1.907       .  S
O448       C1001   1.258   1_455  A
O449        C462   1.255       .  A
O449       Co457   1.988       .  S
O450        C463   1.274       .  A
O450       Co458   2.013       .  S
O451        C463   1.273   1_554  A
O451       Co456   1.971   1_454  S
O452        C462   1.254       .  A
O452       Co455   2.008       .  S
O453        C460   1.252       .  A
O453       Co458   1.983       .  S
O454        C461   1.260       .  A
O454       Co457   1.980       .  S
Co455       O987   1.921       .  S
Co456       O979   1.957       .  S
Co456       O999   2.070   1_556  S
Co458       O999   2.003   1_456  S
O459       Co996   1.996   1_556  S
O459       Co998   2.063       .  S
C460        C505   1.459   1_556  S
C461        O988   1.267       .  A
C461        C534   1.485       .  S
C462        C537   1.480       .  S
C463        C501   1.473       .  S
O464        C472   1.262       .  A
O464       Co484   1.968       .  S
O465        C473   1.261       .  A
O465       Co485   1.856       .  S
O466        C474   1.287       .  A
O466       Co486   2.048       .  S
O467        C475   1.270       .  A
O467       Co487   2.032       .  S
O470        C473   1.300   1_556  A
O470       Co487   2.124       .  S
O471        C472   1.269       .  A
O471       Co486   2.007       .  S
C472        C522   1.466       .  S
C473        C502   1.457       .  S
C474        C518   1.480       .  S
C475        C494   1.480       .  S
O478        C491   1.276       .  A
O478       Co486   1.986       .  S
O479        C492   1.275       .  A
O479       Co487   1.918       .  S
O480        C492   1.291       .  A
O480       Co485   2.093   1_556  S
O481        C491   1.271       .  A
O481       Co484   1.994       .  S
O482        C489   1.274       .  A
O482       Co487   1.991   1_545  S
O483        C490   1.267       .  A
O483       Co486   2.014       .  S
C489        C510   1.479       .  S
C490        C506   1.476       .  S
C491        C498   1.467       .  S
C492        C513   1.477       .  S
C493        H495   1.089       .  S
C494        H496   1.085       .  S
C497        C498   1.334       .  D
C498        H500   1.087       .  S
C501        H503   1.088       .  S
C501        C502   1.338   1_556  D
C513        C514   1.343       .  D
C514        H516   1.086       .  S
C517        H519   1.086       .  S
C518        H520   1.087       .  S
C521        C522   1.344       .  D
C522        H524   1.087       .  S
C525       H1067   1.086       .  S
C525       C1066   1.356   1_455  D
C526       H1068   1.087       .  S
C526       C1065   1.340       .  D
H527       C1065   1.086       .  S
H528       C1066   1.088       .  S
C529        H531   1.089       .  S
C529        C530   1.353       .  D
C530        H532   1.086   1_655  S
C533       H1075   1.088       .  S
C533       C1074   1.348       .  D
C534       H1076   1.086       .  S
C534       C1073   1.346       .  D
H535       C1073   1.087       .  S
H536       C1074   1.087       .  S
C537        H539   1.086       .  S
C537        C538   1.350       .  D
C538       H1080   1.087       .  S
H540       C1078   1.086       .  S
O541        C549   1.264   1_455  A
O541       Co561   1.986       .  S
O542        C550   1.258       .  A
O542       Co562   1.892       .  S
O543        C551   1.286   1_655  A
O543       Co563   2.040       .  S
O544        C552   1.271       .  A
O544       Co564   2.011       .  S
O545       Co832   1.956       .  S
O546        C822   1.270   1_545  A
O547        C550   1.294       .  A
O547       Co564   2.129       .  S
O548        C549   1.263       .  A
O548       Co563   1.994       .  S
C549        C673   1.476       .  S
C550        C649   1.489       .  S
C551        C661   1.470       .  S
C552        O816   1.267       .  A
C552        C652   1.474       .  S
O553       Co831   1.980       .  S
O554        C837   1.267       .  A
O555        C568   1.268       .  A
O555       Co563   1.958       .  S
O556        C569   1.275       .  A
O556       Co564   1.903       .  S
O557        C569   1.297       .  A
O557       Co562   2.104       .  S
O558        C568   1.278       .  A
O558       Co561   2.019   1_655  S
O559        C566   1.267       .  A
O559       Co564   1.981       .  S
O560        C567   1.256       .  A
O560       Co563   1.976       .  S
Co561       O823   2.004   1_545  S
Co562       O815   1.964       .  S
Co562       O835   1.974       .  S
Co564       O835   2.034       .  S
O565       Co832   1.961       .  S
O565       Co834   2.034   1_545  S
C566        C668   1.481       .  S
C567        O824   1.266       .  A
C567        C644   1.483       .  S
C568        C656   1.463       .  S
C569        C664   1.472       .  S
O570        C578   1.230       .  A
O570       Co590   1.901   1_654  S
O571        C579   1.242       .  A
O571       Co591   1.951       .  S
O572        C580   1.263   1_556  A
O572       Co592   1.963   1_556  S
O573        C581   1.279       .  A
O573       Co593   1.931       .  S
O574        C715   1.267       .  A
O575       Co725   1.941       .  S
O576        C579   1.252       .  A
O576       Co593   2.030       .  S
O577        C578   1.271   1_556  A
O577       Co592   2.039   1_556  S
C578        C632   1.447   1_554  S
C579        C665   1.473       .  S
C580        O709   1.282       .  A
C580        C628   1.477   1_554  S
C581        C660   1.467       .  S
O582        C730   1.225       .  A
O583       Co726   1.967       .  S
O584        C597   1.284   1_655  A
O584       Co592   2.036       .  S
O585        C598   1.282       .  A
O585       Co593   2.037       .  S
O586        C598   1.271       .  A
O586       Co591   1.952       .  S
O587        C597   1.265       .  A
O587       Co590   1.963   1_554  S
O588        C595   1.288       .  A
O588       Co593   2.083       .  S
O589        C596   1.272       .  A
O589       Co592   2.050       .  S
Co590       O710   2.072   1_455  S
Co590       O729   1.994   1_455  S
Co591       O718   1.958       .  S
Co592       O729   2.080   1_554  S
O594       Co725   2.003   1_455  S
O594       Co727   2.041   1_455  S
C595        O717   1.265       .  A
C595        C640   1.474       .  S
C596        C669   1.479       .  S
C597        C672   1.481       .  S
C598        C636   1.476       .  S
O599        C607   1.259   1_565  A
O599       Co619   1.955       .  S
O600        C608   1.258       .  A
O600       Co620   1.879       .  S
O601        C609   1.277       .  A
O601       Co621   2.025       .  S
O602        C610   1.263       .  A
O602       Co622   2.018       .  S
O603        C879   1.266       .  A
O603       Co755   1.963       .  S
O604        C745   1.253   1_554  A
O604       Co889   1.952       .  S
O605        C608   1.292       .  A
O605       Co622   2.111       .  S
O606        C607   1.270       .  A
O606       Co621   2.018       .  S
C607        C657   1.464       .  S
C608        C637   1.460       .  S
C609        O873   1.268   1_545  A
C609        C653   1.477       .  S
C610        O739   1.253       .  A
C610        C629   1.471       .  S
O611        C894   1.275   1_565  A
O611       Co754   2.010       .  S
O612        C760   1.261       .  A
O612       Co890   1.993   1_545  S
O613        C626   1.248       .  A
O613       Co621   1.931   1_556  S
O614        C627   1.272       .  A
O614       Co622   1.927       .  S
O615        C627   1.291       .  A
O615       Co620   2.086       .  S
O616        C626   1.280   1_554  A
O616       Co619   2.025   1_545  S
O617        C624   1.271       .  A
O617       Co622   1.960       .  S
O618        C625   1.249       .  A
O618       Co621   1.953       .  S
Co619       O874   1.970       .  S
Co619       O746   2.012   1_554  S
Co619       O758   2.007   1_565  S
Co620       O738   1.950       .  S
Co620       O882   1.995       .  S
Co620       O893   1.966       .  S
Co621       O758   2.035       .  S
Co622       O893   2.048       .  S
O623       Co754   2.008   1_545  S
O623       Co890   1.970   1_545  S
O623       Co756   2.059       .  S
O623       Co892   2.050   1_545  S
C624        O881   1.282       .  A
C624        C645   1.465       .  S
C625        O747   1.268       .  A
C625        C641   1.464       .  S
C626        C633   1.459       .  S
C627        C648   1.481       .  S
C628        H630   1.088   1_556  S
C628        C764   1.354       .  D
C629        H631   1.088       .  S
C629        C763   1.344       .  D
C632        H769   1.089   1_556  S
C632        C633   1.318       .  D
C633        H635   1.087       .  S
H634        C767   1.087       .  S
C636        H638   1.087       .  S
C636        C637   1.342       .  D
C637        H774   1.088       .  S
H639        C772   1.087       .  S
C640        H777   1.086       .  S
C640        C776   1.341       .  D
C641        H778   1.087       .  S
C641        C775   1.359   1_554  D
H642        C775   1.086       .  S
H643        C776   1.087       .  S
C644        H916   1.087       .  S
C644        C915   1.355       .  D
C645        H917   1.086       .  S
C645        C914   1.342       .  D
H646        C914   1.086       .  S
H647        C915   1.087       .  S
C648        H920   1.087       .  S
C648        C649   1.347       .  D
C649        H651   1.086       .  S
H650        C918   1.087   1_545  S
C652        H654   1.087       .  S
C652        C923   1.344       .  D
C653        H655   1.087       .  S
C653        C922   1.347   1_545  D
C656        H928   1.088   1_545  S
C656        C657   1.342       .  D
C657        H659   1.087       .  S
H658        C926   1.089       .  S
C664        H666   1.090       .  S
C664        C665   1.345       .  D
C665        H667   1.086       .  S
C672        H674   1.087       .  S
C672        C673   1.342   1_455  D
O676        C684   1.263   1_455  A
O676       Co696   1.981       .  S
O677        C685   1.266       .  A
O677       Co697   1.889       .  S
O678        C686   1.280   1_655  A
O678       Co698   2.029       .  S
O679        C687   1.272       .  A
O679       Co699   2.034       .  S
O680       Co967   1.964       .  S
O681        C957   1.266   1_545  A
O682        C685   1.286       .  A
O682       Co699   2.094       .  S
O683        C684   1.270       .  A
O683       Co698   2.022       .  S
C684        C808   1.491       .  S
C685        C784   1.474       .  S
C686        C796   1.480       .  S
C687        O951   1.250       .  A
C687        C787   1.465       .  S
O688       Co966   2.064       .  S
O689        C972   1.260       .  A
O690        C703   1.265       .  A
O690       Co698   1.955       .  S
O691        C704   1.269       .  A
O691       Co699   1.895       .  S
O692        C704   1.301       .  A
O692       Co697   2.131       .  S
O693        C703   1.276       .  A
O693       Co696   2.016   1_655  S
O694        C701   1.258       .  A
O694       Co699   1.954       .  S
O695        C702   1.259       .  A
O695       Co698   1.982       .  S
Co696       O958   2.023   1_545  S
Co697       O950   1.984       .  S
Co697       O970   1.985       .  S
Co699       O970   2.020       .  S
O700       Co967   1.978       .  S
O700       Co969   2.029   1_545  S
C701        C803   1.479       .  S
C702        O959   1.264       .  A
C702        C779   1.479       .  S
C703        C791   1.463       .  S
C704        C799   1.488       .  S
O705        C713   1.250       .  A
O705       Co725   1.952       .  S
O706        C714   1.272       .  A
O706       Co726   2.011   1_556  S
O707        C715   1.296       .  A
O707       Co727   2.114       .  S
O708        C716   1.280       .  A
O708       Co728   1.907       .  S
O711        C714   1.273       .  A
O711       Co728   1.991       .  S
O712        C713   1.271       .  A
O712       Co727   2.041       .  S
C713        C767   1.485       .  S
C714        C800   1.480       .  S
C715        C763   1.466       .  S
C716        C795   1.478       .  S
O719        C732   1.276       .  A
O719       Co727   1.991   1_455  S
O720        C733   1.270       .  A
O720       Co728   2.011       .  S
O721        C733   1.257   1_554  A
O721       Co726   1.953       .  S
O722        C732   1.278   1_655  A
O722       Co725   2.024       .  S
O723        C730   1.273       .  A
O723       Co728   2.090       .  S
O724        C731   1.277       .  A
O724       Co727   1.936       .  S
C730        C775   1.477       .  S
C731        C804   1.492       .  S
C732        C807   1.484       .  S
C733        C771   1.462       .  S
O734        C742   1.257   1_565  A
O734       Co754   1.950       .  S
O735        C743   1.263       .  A
O735       Co755   1.863       .  S
O736        C744   1.274       .  A
O736       Co756   2.011       .  S
O737        C745   1.269       .  A
O737       Co757   2.034       .  S
O738       C1014   1.257       .  A
O739      Co1024   1.958       .  S
O740        C743   1.293   1_556  A
O740       Co757   2.104       .  S
O741        C742   1.269       .  A
O741       Co756   2.020       .  S
C742        C792   1.462       .  S
C743        C772   1.446       .  S
C744       O1008   1.268   1_545  A
C744        C788   1.470       .  S
C745        C764   1.477       .  S
O746       C1029   1.274   1_565  A
O747      Co1025   2.018   1_545  S
O748        C761   1.265       .  A
O748       Co756   1.963       .  S
O749        C762   1.277       .  A
O749       Co757   1.911       .  S
O750        C762   1.286       .  A
O750       Co755   2.078   1_556  S
O751        C761   1.277       .  A
O751       Co754   2.036   1_545  S
O752        C759   1.272       .  A
O752       Co757   1.970       .  S
O753        C760   1.263       .  A
O753       Co756   1.988       .  S
Co754      O1009   1.957       .  S
Co755      O1017   1.995       .  S
Co755      O1028   1.948       .  S
Co757      O1028   2.018   1_556  S
O758      Co1025   1.959   1_545  S
O758      Co1027   2.024   1_544  S
C759       O1016   1.278       .  A
C759        C780   1.476       .  S
C760        C776   1.469       .  S
C761        C768   1.472       .  S
C762        C783   1.465       .  S
C763        H765   1.088       .  S
C764        H766   1.086       .  S
C767        C768   1.356       .  D
C768        H770   1.086       .  S
C771        H773   1.086       .  S
C771        C772   1.343   1_556  D
C779       H1051   1.087       .  S
C779       C1050   1.350       .  D
C780       H1052   1.086       .  S
C780       C1049   1.347       .  D
H781       C1049   1.086       .  S
H782       C1050   1.087       .  S
C783       H1055   1.088       .  S
C783        C784   1.331       .  D
C784        H786   1.087       .  S
H785       C1053   1.088   1_545  S
C787        H789   1.088       .  S
C787       C1058   1.330       .  D
C788        H790   1.088       .  S
C788       C1057   1.343   1_545  D
C791       H1063   1.089       .  S
C791        C792   1.343       .  D
C792        H794   1.087       .  S
H793       C1061   1.089       .  S
C799        H801   1.087       .  S
C799        C800   1.346       .  D
C800        H802   1.087       .  S
C807        H809   1.086       .  S
C807        C808   1.350   1_455  D
O811        C819   1.267       .  A
O811       Co831   2.012   1_455  S
O812        C820   1.260   1_545  A
O812       Co832   1.887       .  S
O813        C821   1.267   1_655  A
O813       Co833   2.002       .  S
O814        C822   1.277       .  A
O814       Co834   2.025       .  S
O817        C820   1.293       .  A
O817       Co834   2.130       .  S
O818        C819   1.265   1_655  A
O818       Co833   2.015       .  S
C819        C943   1.494       .  S
C820        C919   1.487       .  S
C821        C931   1.484       .  S
C822        C922   1.482       .  S
O825        C838   1.261       .  A
O825       Co833   1.965       .  S
O826        C839   1.280       .  A
O826       Co834   1.921       .  S
O827        C839   1.293       .  A
O827       Co832   2.090   1_565  S
O828        C838   1.262       .  A
O828       Co831   1.974       .  S
O829        C836   1.274       .  A
O829       Co834   2.003       .  S
O830        C837   1.263       .  A
O830       Co833   1.965       .  S
C836        C938   1.485       .  S
C837        C914   1.464       .  S
C838        C926   1.433       .  S
C839        C934   1.478       .  S
O840        C848   1.249   1_556  A
O840       Co860   1.911       .  S
O841        C849   1.251       .  A
O841       Co861   1.982       .  S
O842        C850   1.285       .  A
O842       Co862   2.055       .  S
O843        C851   1.279       .  A
O843       Co863   1.954       .  S
O844        C985   1.273       .  A
O845       Co995   2.079   1_655  S
O846        C849   1.250       .  A
O846       Co863   2.016       .  S
O847        C848   1.274       .  A
O847       Co862   2.039       .  S
C848        C902   1.465       .  S
C849        C935   1.485       .  S
C850        O979   1.262   1_554  A
C850        C898   1.487       .  S
C851        C930   1.480       .  S
O852       C1000   1.253       .  A
O853       Co996   1.965       .  S
O854        C867   1.264       .  A
O854       Co862   2.002       .  S
O855        C868   1.285       .  A
O855       Co863   2.051       .  S
O856        C868   1.270       .  A
O856       Co861   1.964       .  S
O857        C867   1.273       .  A
O857       Co860   2.030   1_554  S
O858        C865   1.292       .  A
O858       Co863   2.091       .  S
O859        C866   1.250       .  A
O859       Co862   1.974       .  S
Co860       O980   2.025       .  S
Co860       O999   2.069   1_556  S
Co861       O988   1.999       .  S
Co862       O999   2.091       .  S
O864       Co995   1.999   1_655  S
O864       Co997   2.061       .  S
C865        O987   1.267       .  A
C865        C910   1.485       .  S
C866        C939   1.482       .  S
C867        C942   1.504   1_655  S
C868        C906   1.492       .  S
O869        C877   1.255       .  A
O869       Co889   1.959       .  S
O870        C878   1.259       .  A
O870       Co890   1.872       .  S
O871        C879   1.276       .  A
O871       Co891   2.023       .  S
O872        C880   1.267       .  A
O872       Co892   2.022       .  S
O873      Co1025   1.970       .  S
O874       C1015   1.259   1_554  A
O875        C878   1.301       .  A
O875       Co892   2.145       .  S
O876        C877   1.268       .  A
O876       Co891   1.981       .  S
C877        C927   1.441       .  S
C878        C907   1.478       .  S
C879        C923   1.470       .  S
C880       O1009   1.256       .  A
C880        C899   1.473       .  S
O881      Co1024   2.020       .  S
O882       C1030   1.262       .  A
O883        C896   1.262       .  A
O883       Co891   1.951       .  S
O884        C897   1.276       .  A
O884       Co892   1.919       .  S
O885        C897   1.292       .  A
O885       Co890   2.095       .  S
O886        C896   1.277       .  A
O886       Co889   2.024       .  S
O887        C894   1.276       .  A
O887       Co892   1.994   1_545  S
O888        C895   1.258       .  A
O888       Co891   1.963       .  S
Co889      O1016   2.022   1_554  S
Co889      O1028   1.991       .  S
Co890      O1008   1.973       .  S
Co891      O1028   2.033       .  S
O893      Co1024   1.990       .  S
O893      Co1026   2.046       .  S
C894        C915   1.487       .  S
C895       O1017   1.263       .  A
C895        C911   1.452       .  S
C896        C903   1.464   1_554  S
C897        C918   1.478       .  S
C898        H900   1.086       .  S
C898       C1034   1.357   1_554  D
C899        H901   1.086       .  S
C899       C1033   1.348       .  D
C902       H1039   1.087       .  S
C902        C903   1.348   1_554  D
C903        H905   1.088       .  S
H904       C1037   1.087       .  S
C906        H908   1.086       .  S
C906        C907   1.350       .  D
C907       H1044   1.087       .  S
H909       C1042   1.088       .  S
C910       H1047   1.086       .  S
C910       C1046   1.346       .  D
C911       H1048   1.088       .  S
C911       C1045   1.344   1_554  D
H912       C1045   1.086       .  S
H913       C1046   1.087       .  S
C918        C919   1.344       .  D
C919        H921   1.086       .  S
C922        H924   1.086       .  S
C923        H925   1.087       .  S
C926        C927   1.330       .  D
C927        H929   1.087       .  S
C934        H936   1.089       .  S
C934        C935   1.342       .  D
C935        H937   1.086       .  S
C942        H944   1.086       .  S
C942        C943   1.359       .  D
O946        C954   1.263   1_455  A
O946       Co966   1.987       .  S
O947        C955   1.267   1_545  A
O947       Co967   1.892       .  S
O948        C956   1.285       .  A
O948       Co968   2.039       .  S
O949        C957   1.271       .  A
O949       Co969   2.018       .  S
O952        C955   1.292       .  A
O952       Co969   2.118       .  S
O953        C954   1.269       .  A
O953       Co968   2.026       .  S
C954       C1078   1.496       .  S
C955       C1054   1.487       .  S
C956       C1066   1.486       .  S
C957       C1057   1.477       .  S
O960        C973   1.267       .  A
O960       Co968   1.974       .  S
O961        C974   1.276       .  A
O961       Co969   1.913       .  S
O962        C974   1.291       .  A
O962       Co967   2.094   1_565  S
O963        C973   1.271       .  A
O963       Co966   1.999   1_655  S
O964        C971   1.272       .  A
O964       Co969   1.981       .  S
O965        C972   1.259       .  A
O965       Co968   1.979       .  S
C971       C1073   1.470       .  S
C972       C1049   1.474       .  S
C973       C1061   1.466       .  S
C974       C1069   1.478       .  S
O975        C983   1.269       .  A
O975       Co995   2.034   1_655  S
O976        C984   1.282       .  A
O976       Co996   2.039   1_556  S
O977        C985   1.262       .  A
O977       Co997   1.972       .  S
O978        C986   1.268       .  A
O978       Co998   1.913       .  S
O981        C984   1.264       .  A
O981       Co998   1.967       .  S
O982        C983   1.254       .  A
O982       Co997   1.975       .  S
C983       C1037   1.491       .  S
C984       C1070   1.482       .  S
C985       C1033   1.471       .  S
C986       C1065   1.480       .  S
O989       C1002   1.283       .  A
O989       Co997   2.062       .  S
O990       C1003   1.261       .  A
O990       Co998   2.023       .  S
O991       C1003   1.251   1_554  A
O991       Co996   1.960       .  S
O992       C1002   1.263   1_455  A
O992       Co995   1.968       .  S
O993       C1000   1.290       .  A
O993       Co998   2.104       .  S
O994       C1001   1.272       .  A
O994       Co997   2.039       .  S
C1000      C1045   1.466       .  S
C1001      C1074   1.483       .  S
C1002      C1077   1.492       .  S
C1003      C1041   1.479       .  S
O1004      C1012   1.263       .  A
O1004     Co1024   1.970       .  S
O1005      C1013   1.264       .  A
O1005     Co1025   1.869       .  S
O1006      C1014   1.287       .  A
O1006     Co1026   2.049       .  S
O1007      C1015   1.277       .  A
O1007     Co1027   2.043       .  S
O1010      C1013   1.297   1_556  A
O1010     Co1027   2.122       .  S
O1011      C1012   1.267       .  A
O1011     Co1026   1.999       .  S
C1012      C1062   1.463       .  S
C1013      C1042   1.465       .  S
C1014      C1058   1.474       .  S
C1015      C1034   1.487       .  S
O1018      C1031   1.280       .  A
O1018     Co1026   2.011       .  S
O1019      C1032   1.279       .  A
O1019     Co1027   1.923       .  S
O1020      C1032   1.288       .  A
O1020     Co1025   2.082   1_556  S
O1021      C1031   1.272       .  A
O1021     Co1024   2.008       .  S
O1022      C1029   1.271       .  A
O1022     Co1027   1.986   1_545  S
O1023      C1030   1.265       .  A
O1023     Co1026   2.003       .  S
C1029      C1050   1.483       .  S
C1030      C1046   1.479       .  S
C1031      C1038   1.490       .  S
C1032      C1053   1.476       .  S
C1033      H1035   1.089       .  S
C1034      H1036   1.086       .  S
C1037      C1038   1.341       .  D
C1038      H1040   1.088       .  S
C1041      H1043   1.088       .  S
C1041      C1042   1.348   1_556  D
C1053      C1054   1.338       .  D
C1054      H1056   1.086       .  S
C1057      H1059   1.086       .  S
C1058      H1060   1.088       .  S
C1061      C1062   1.339       .  D
C1062      H1064   1.087       .  S
C1069      H1071   1.088       .  S
C1069      C1070   1.338       .  D
C1070      H1072   1.086       .  S
C1077      H1079   1.086   1_655  S
C1077      C1078   1.349       .  D
