geometry optimzed in LAMMPS
_audit_creation_date              2020-12-01 
_audit_creation_method            'lammps2cif' 
_symmetry_space_group_name_H-M    'P1' 
_symmetry_Int_Tables_number       1 
_symmetry_cell_setting            triclinic 
loop_ 
_symmetry_equiv_pos_as_xyz 
  x,y,z 
_cell_length_a                    27.76478564 
_cell_length_b                    27.727688278477324 
_cell_length_c                    27.64627155979669 
_cell_angle_alpha                 89.7833162148891 
_cell_angle_beta                  90.00597583349997 
_cell_angle_gamma                 90.01975705866103 
loop_ 
_atom_site_label 
_atom_site_type_symbol 
_atom_site_fract_x 
_atom_site_fract_y 
_atom_site_fract_z 
_atom_site_charge 
O1          O  0.87187191  0.01208703  0.41469929    -0.75300
O2          O  0.93236446  0.00275526  0.35969634    -0.54200
C3          C  0.88782556  0.00858299  0.37105455     0.78400
O4          O  0.00947798  0.13461691  0.58154946    -0.59900
O5          O  0.00322864  0.07568440  0.63884600    -0.53000
C6          C  0.00683139  0.12012581  0.62571499     0.70400
O7          O  0.00957321  0.13359934  0.41940720    -0.74500
O8          O  0.01104923  0.07428489  0.36253208    -0.55000
C9          C  0.01067973  0.11889880  0.37533998     0.76400
O10         O  0.86438332  0.00344940  0.57811888    -0.59600
O11         O  0.92214923  0.00395824  0.63666348    -0.52700
C12         C  0.87787944  0.00320285  0.62274960     0.73000
Zr13       Zr  0.90129988  0.00748322  0.49778807     2.54700
O14         O  0.84883669  0.07773160  0.50025589    -0.80200
O15         O  0.83348449  0.95221068  0.49098440    -0.93600
Zr16       Zr  0.00946198  0.10023178  0.50072299     2.64700
O17         O  0.95357260  0.16790861  0.50062173    -0.98600
O18         O  0.07833725  0.15457949  0.50083077    -0.80600
O19         O  0.95637228  0.05435061  0.45191682    -0.84000
O20         O  0.95269024  0.05527407  0.54632661    -2.18700
O21         O  0.98758114  0.86683062  0.58306586    -0.67400
O22         O  0.99230597  0.92635401  0.63960561    -0.51900
C23         C  0.98868397  0.88192295  0.62705457     0.71400
O24         O  0.13920379  0.98939295  0.42507399    -0.60300
O25         O  0.08171560  0.99063465  0.36601038    -0.52300
C26         C  0.12572435  0.98871111  0.38054946     0.73200
O27         O  0.13244306  0.99581519  0.58757332    -0.71700
O28         O  0.07156933  0.99708390  0.64278584    -0.50300
C29         C  0.11650277  0.99677767  0.63134145     0.74600
O30         O  0.99623311  0.86550432  0.41948782    -0.67000
O31         O  0.00130088  0.92463309  0.36224423    -0.54200
C32         C  0.99857200  0.88008895  0.37517746     0.73000
Zr33       Zr  0.99438375  0.89903573  0.50125190     2.77500
O34         O  0.05361379  0.83433938  0.50459404    -0.97800
O35         O  0.92832775  0.84141466  0.49784171    -0.78600
Zr36       Zr  0.10228902  0.99182176  0.50479396     2.70100
O37         O  0.15250369  0.91994661  0.50950819    -0.78900
O38         O  0.17129117  0.04603354  0.50335072    -0.98900
Zr39       Zr  0.00523495  0.99912197  0.40775992     2.21500
Zr40       Zr  0.99866828  0.00057444  0.59426750     2.11100
O41         O  0.04735545  0.94491848  0.55033893    -2.47600
O42         O  0.05087535  0.94433678  0.45578999    -0.79600
O43         O  0.94555122  0.95271033  0.54650274    -0.71800
O44         O  0.05852777  0.04676281  0.45565380    -2.32800
O45         O  0.94842220  0.95227430  0.45266076    -2.29000
O46         O  0.05539184  0.04728091  0.54970880    -0.73600
H47         H  0.93362274  0.07639090  0.56637750     0.78400
H48         H  0.08037031  0.06504955  0.43554112     0.79500
H49         H  0.06494575  0.92405911  0.57202402     0.81700
H50         H  0.92785854  0.93386876  0.43141826     0.79300
H51         H  0.09583855  0.14679657  0.53107542     0.42400
H52         H  0.16109664  0.07406040  0.52292610     0.41400
H53         H  0.13831640  0.89754127  0.48560697     0.41000
H54         H  0.07323221  0.84121192  0.53366760     0.39000
H55         H  0.89890357  0.86150075  0.49917360     0.42100
H56         H  0.80524891  0.97126093  0.50155870     0.36900
H57         H  0.86441316  0.10141373  0.47839540     0.43000
H58         H  0.93040461  0.16065865  0.52688722     0.39400
H59         H  0.03476922  0.80526711  0.51335658     0.44300
H60         H  0.83848327  0.92830982  0.51720108     0.43100
H61         H  0.97264800  0.19548575  0.51283568     0.43200
H62         H  0.19619531  0.02977727  0.52318974     0.43500
O63         O  0.99248939  0.41813174  0.13469572    -0.75300
O64         O  0.99857938  0.36177783  0.07520832    -0.54200
C65         C  0.99616109  0.37433587  0.11985388     0.78400
O66         O  0.86664799  0.58177354  0.98341542    -0.59900
O67         O  0.92588606  0.63810720  0.99168214    -0.53000
C68         C  0.88161859  0.62575223  0.98538733     0.70400
O69         O  0.86476312  0.41938360  0.99496111    -0.74500
O70         O  0.92392724  0.36257202  0.99904106    -0.55000
C71         C  0.87936871  0.37537641  0.99737273     0.76400
O72         O  0.99200426  0.57990065  0.13521830    -0.59600
O73         O  0.99490008  0.63685199  0.07566448    -0.52700
C74         C  0.99304681  0.62393142  0.12039964     0.73000
Zr75       Zr  0.98984571  0.49927156  0.10099352     2.54700
O76         O  0.91364573  0.49945848  0.14455892    -0.80200
O77         O  0.03563360  0.49634260  0.17614586    -0.93600
Zr78       Zr  0.89882490  0.50029175  0.99193315     2.64700
O79         O  0.83467192  0.50653900  0.05161731    -0.98600
O80         O  0.84253174  0.49402045  0.92470793    -0.80600
O81         O  0.94334210  0.45223333  0.04724742    -0.84000
O82         O  0.94395982  0.54721514  0.04710608    -2.18700
O83         O  0.13377263  0.58091697  0.01292861    -0.67400
O84         O  0.07504892  0.63782133  0.00581276    -0.51900
C85         C  0.11941005  0.62501547  0.01044618     0.71400
O86         O  0.00656535  0.41900421  0.86585151    -0.60300
O87         O  0.00333413  0.36216325  0.92554979    -0.52300
C88         C  0.00513003  0.37499542  0.88081923     0.73200
O89         O  0.00185499  0.58127151  0.86581767    -0.71700
O90         O  0.00329720  0.63781254  0.92544721    -0.50300
C91         C  0.00161114  0.62519384  0.88078682     0.74600
O92         O  0.13312521  0.41796445  0.00472093    -0.67000
O93         O  0.07349092  0.36140838  0.00336596    -0.54200
C94         C  0.11808776  0.37395959  0.00358684     0.73000
Zr95       Zr  0.10015424  0.49970177  0.00920137     2.77500
O96         O  0.17135389  0.50335055  0.95772517    -0.97800
O97         O  0.15029293  0.49674986  0.08144696    -0.78600
Zr98       Zr  0.00809042  0.50004245  0.89945887     2.70100
O99         O  0.08114350  0.50086028  0.85072470    -0.79800
O100        O  0.95656207  0.49700290  0.82816807    -0.98900
Zr101      Zr  0.99926024  0.40713585  0.00037257     2.21500
Zr102      Zr  0.00016212  0.59264574  0.00031152     2.11100
O103        O  0.05549181  0.54681398  0.95306351    -2.47600
O104        O  0.05494690  0.45300387  0.95348118    -0.79600
O105        O  0.04617260  0.54620772  0.05637269    -0.71800
O106        O  0.95240696  0.45348438  0.94488719    -2.32800
O107        O  0.04603685  0.45309069  0.05600338    -2.29000
O108        O  0.95313898  0.54678920  0.94496015    -0.73600
H109        H  0.92272975  0.56817560  0.06500934     0.78400
H110        H  0.93387902  0.43293361  0.92380679     0.79500
H111        H  0.07665107  0.56756327  0.93475445     0.81700
H112        H  0.06452436  0.43241453  0.07716385     0.79300
H113        H  0.81107001  0.48693284  0.94003574     0.42400
H114        H  0.93234935  0.52273329  0.83309840     0.41400
H115        H  0.07396304  0.52324362  0.82369312     0.41000
H116        H  0.16762703  0.47613283  0.93495742     0.39000
H117        H  0.12736862  0.49230445  0.10851637     0.42100
H118        H  0.01539412  0.51323238  0.20021719     0.36900
H119        H  0.92112297  0.48424412  0.17612750     0.43000
H120        H  0.80474772  0.50000554  0.03329673     0.39400
H121        H  0.16678440  0.53243882  0.93735809     0.44300
H122        H  0.06336200  0.51813976  0.17065669     0.43100
H123        H  0.83883824  0.47788600  0.07268522     0.43200
H124        H  0.97700919  0.50887137  0.80129708     0.43500
O125        O  0.58015143  0.13488841  0.00514430    -0.75300
O126        O  0.63707484  0.07580333  0.00132124    -0.54200
C127        C  0.62413180  0.12029956  0.00357538     0.78400
O128        O  0.42561008  0.98990955  0.14110394    -0.59900
O129        O  0.36663283  0.99333219  0.08358644    -0.53000
C130        C  0.38127956  0.98983661  0.12762031     0.70400
O131        O  0.58652249  0.00252338  0.13516181    -0.74500
O132        O  0.64099907  0.99892706  0.07360659    -0.55000
C133        C  0.62988424  0.00159872  0.11871688     0.76400
O134        O  0.41818383  0.13421096  0.00122601    -0.59600
O135        O  0.36229783  0.07436865  0.00849255    -0.52700
C136        C  0.37439164  0.11908733  0.00445313     0.73000
Zr137      Zr  0.49949022  0.10071669  0.00459917     2.54700
O138        O  0.49597171  0.15821928  0.07081911    -0.80200
O139        O  0.50406506  0.16360157  0.94302754    -0.93600
Zr140      Zr  0.50458353  0.99755614  0.10413607     2.64700
O141        O  0.50104235  0.06010138  0.16560766    -0.98600
O142        O  0.51356107  0.93381281  0.16429263    -0.80600
O143        O  0.54882314  0.05042351  0.05346343    -0.84000
O144        O  0.45515395  0.04978396  0.05735321    -2.18700
O145        O  0.41493084  0.00010034  0.87198422    -0.67400
O146        O  0.35984235  0.99856908  0.93307176    -0.51900
C147        C  0.37137291  0.99897863  0.88798520     0.71400
O148        O  0.58304205  0.86688980  0.99216744    -0.60300
O149        O  0.63956570  0.92641730  0.99479347    -0.52300
C150        C  0.62704552  0.88187790  0.99150247     0.73200
O151        O  0.42006588  0.86513032  0.00495263    -0.71700
O152        O  0.36313279  0.92429607  0.00690371    -0.50300
C153        C  0.37600405  0.87973197  0.00640499     0.74600
O154        O  0.57707723  0.99758552  0.86490585    -0.67000
O155        O  0.63516375  0.00047112  0.92301781    -0.54200
C156        C  0.62141140  0.99824849  0.87860712     0.73000
Zr157      Zr  0.49729521  0.00216398  0.90185280     2.77500
O158        O  0.49285096  0.94440268  0.83587206    -0.97800
O159        O  0.49596353  0.07085105  0.84673365    -0.78600
Zr160      Zr  0.50133587  0.89875811  0.00098788     2.70100
O161        O  0.49501157  0.83955333  0.93648054    -0.79800
O162        O  0.50626501  0.83632034  0.06292207    -0.98900
Zr163      Zr  0.59329304  0.00026693  0.99994125     2.21500
Zr164      Zr  0.40779292  0.99926805  0.00645830     2.11100
O165        O  0.45263593  0.94957791  0.95252300    -2.47600
O166        O  0.54599314  0.94995822  0.94901203    -0.79600
O167        O  0.45117590  0.05189916  0.95387741    -0.71800
O168        O  0.54977270  0.94724665  0.05203544    -2.32800
O169        O  0.54545394  0.05257842  0.95092900    -2.29000
O170        O  0.45615758  0.94711939  0.05501382    -0.73600
H171        H  0.43498556  0.06889563  0.07830629     0.78400
H172        H  0.57139949  0.92723702  0.07069228     0.79500
H173        H  0.43143686  0.92999154  0.93315349     0.81700
H174        H  0.56542812  0.07283364  0.93072258     0.79300
H175        H  0.52174309  0.95084527  0.19462186     0.42400
H176        H  0.50877332  0.80584185  0.04454078     0.41400
H177        H  0.47902732  0.85690052  0.90954665     0.41000
H178        H  0.50602351  0.96174609  0.80742506     0.39000
H179        H  0.51578348  0.06070556  0.81880048     0.42100
H180        H  0.48823107  0.19194683  0.95779203     0.36900
H181        H  0.52595708  0.15256321  0.08937473     0.43000
H182        H  0.51361316  0.04450339  0.19530628     0.39400
H183        H  0.51746372  0.91977531  0.84380564     0.44300
H184        H  0.48155874  0.15296926  0.91741400     0.43100
H185        H  0.52641959  0.08338654  0.15614363     0.43200
H186        H  0.53842811  0.84051858  0.07778865     0.43500
C187        C  0.71108286  0.67542624  0.97901797    -0.17900
C188        C  0.67564453  0.71110623  0.98049255    -0.20000
C189        C  0.68852855  0.75998656  0.98196684     0.20600
C190        C  0.73758637  0.77318403  0.98139271    -0.02900
C191        C  0.77345236  0.73707155  0.98008353    -0.06000
C192        C  0.76000877  0.68802277  0.97914300     0.20900
C193        C  0.82261853  0.74997390  0.98063757     0.19100
C194        C  0.83540634  0.79898951  0.98152614    -0.17500
C195        C  0.79981779  0.83482902  0.98259965    -0.19700
C196        C  0.75077497  0.82231334  0.98296963     0.20600
C197        C  0.71471057  0.85788307  0.98562335    -0.32700
C198        C  0.66557325  0.84486557  0.98698599     0.01200
C199        C  0.65306050  0.79572241  0.98469725    -0.24100
C200        C  0.79558571  0.65226233  0.97939850    -0.28600
C201        C  0.84477871  0.66450350  0.98128223     0.06900
C202        C  0.85799112  0.71363930  0.98124578    -0.27300
H203        H  0.70020081  0.63790196  0.97833754     0.11600
H204        H  0.63809978  0.70042901  0.98088743     0.12800
H205        H  0.87296360  0.80961606  0.98186110     0.11800
H206        H  0.81067795  0.87234631  0.98369056     0.11100
H207        H  0.72497635  0.89556500  0.98718388     0.16500
H208        H  0.61552748  0.78498455  0.98558326     0.12400
H209        H  0.78469491  0.61471531  0.97933206     0.15200
H210        H  0.89570407  0.72367615  0.98246467     0.15000
C211        C  0.83162820  0.20309383  0.99625341    -0.17900
C212        C  0.79599022  0.16744493  0.99771378    -0.20000
C213        C  0.74719848  0.18019044  0.00098976     0.20600
C214        C  0.73419603  0.22931396  0.00338718    -0.02900
C215        C  0.77014221  0.26525721  0.00204238    -0.06000
C216        C  0.81908343  0.25207998  0.99822649     0.20900
C217        C  0.75705706  0.31433753  0.00428132     0.19100
C218        C  0.70830637  0.32710078  0.00818954    -0.17500
C219        C  0.67269183  0.29150069  0.00940404    -0.19700
C220        C  0.68527966  0.24258608  0.00678236     0.20600
C221        C  0.64973787  0.20679006  0.00713158    -0.32700
C222        C  0.66226502  0.15767134  0.00418806     0.01200
C223        C  0.71120687  0.14470734  0.00147350    -0.24100
C224        C  0.85460645  0.28807255  0.99647262    -0.28600
C225        C  0.84189017  0.33717757  0.99864386     0.06900
C226        C  0.79289207  0.34985341  0.00254315    -0.27300
H227        H  0.86903343  0.19233868  0.99346432     0.11600
H228        H  0.80658724  0.12988391  0.99598237     0.12800
H229        H  0.69769973  0.36465085  0.01009571     0.11800
H230        H  0.63527109  0.30224155  0.01217076     0.11100
H231        H  0.61222838  0.21738152  0.00943392     0.16500
H232        H  0.72139117  0.10703863  0.99933046     0.12400
H233        H  0.89213189  0.27776991  0.99338735     0.15200
H234        H  0.78246096  0.38747013  0.00445694     0.15000
C235        C  0.32686284  0.70839951  0.01181154    -0.17900
C236        C  0.29109132  0.67291690  0.01284747    -0.20000
C237        C  0.24221672  0.68585338  0.01254201     0.20600
C238        C  0.22922445  0.73500526  0.01137221    -0.02900
C239        C  0.26536658  0.77085054  0.01009952    -0.06000
C240        C  0.31436426  0.75740801  0.01031311     0.20900
C241        C  0.25246038  0.82004564  0.00849792     0.19100
C242        C  0.20357224  0.83294144  0.00852777    -0.17500
C243        C  0.16775513  0.79741880  0.01000088    -0.19700
C244        C  0.18017183  0.74835182  0.01120513     0.20600
C245        C  0.14442727  0.71244979  0.01172124    -0.32700
C246        C  0.15703180  0.66322893  0.01216982     0.01200
C247        C  0.20618330  0.65043209  0.01295995    -0.24100
C248        C  0.35006060  0.79312208  0.00905209    -0.28600
C249        C  0.33766258  0.84236208  0.00748088     0.06900
C250        C  0.28861649  0.85544965  0.00703735    -0.27300
H251        H  0.36433791  0.69748991  0.01204408     0.11600
H252        H  0.30166870  0.63531183  0.01377750     0.12800
H253        H  0.19301209  0.87054497  0.00740777     0.11800
H254        H  0.13029099  0.80833945  0.00992777     0.11100
H255        H  0.10682020  0.72291230  0.01126564     0.16500
H256        H  0.21662090  0.61276614  0.01330310     0.12400
H257        H  0.38759819  0.78238846  0.00939283     0.15200
H258        H  0.27846170  0.89317579  0.00569107     0.15000
C259        C  0.28408246  0.32078100  0.96849750    -0.17900
C260        C  0.31985130  0.28530946  0.96875696    -0.20000
C261        C  0.30966985  0.23859991  0.98561909     0.20600
C262        C  0.26279885  0.22730781  0.00179328    -0.02900
C263        C  0.22658861  0.26313071  0.00138719    -0.06000
C264        C  0.23749558  0.31015018  0.98503736     0.20900
C265        C  0.17963890  0.25197553  0.01752945     0.19100
C266        C  0.16936030  0.20507141  0.03386753    -0.17500
C267        C  0.20530438  0.16961232  0.03443033    -0.19700
C268        C  0.25215162  0.18033492  0.01849638     0.20600
C269        C  0.28851646  0.14500343  0.01903284    -0.32700
C270        C  0.33555360  0.15608034  0.00333026     0.01200
C271        C  0.34562561  0.20309217  0.98662770    -0.24100
C272        C  0.20180109  0.34586370  0.98578380    -0.28600
C273        C  0.15499252  0.33531251  0.00220073     0.06900
C274        C  0.14401356  0.28801932  0.01745542    -0.27300
H275        H  0.29294142  0.35664505  0.95557137     0.11600
H276        H  0.35559967  0.29449830  0.95598142     0.12800
H277        H  0.13354533  0.19585124  0.04644304     0.11800
H278        H  0.19645155  0.13376375  0.04738709     0.11100
H279        H  0.28028707  0.10904340  0.03214184     0.16500
H280        H  0.38152057  0.21211089  0.97408005     0.12400
H281        H  0.21048939  0.38196761  0.97335278     0.15200
H282        H  0.10806101  0.27950168  0.03020100     0.15000
C283        C  0.66997694  0.99093664  0.70599997    -0.17900
C284        C  0.70577080  0.99217783  0.67032748    -0.20000
C285        C  0.75457978  0.99574735  0.68319706     0.20600
C286        C  0.76743899  0.99739384  0.73252375    -0.02900
C287        C  0.73130849  0.99630847  0.76851992    -0.06000
C288        C  0.68234093  0.99337141  0.75518654     0.20900
C289        C  0.74423613  0.99859647  0.81780646     0.19100
C290        C  0.79303274  0.00103579  0.83073696    -0.17500
C291        C  0.82878839  0.00187880  0.79513047    -0.19700
C292        C  0.81637468  0.00049891  0.74594550     0.20600
C293        C  0.85207738  0.00243867  0.71004415    -0.32700
C294        C  0.83971385  0.00142081  0.66062035     0.01200
C295        C  0.79069133  0.99787684  0.64763892    -0.24100
C296        C  0.64664835  0.99341043  0.79121642    -0.28600
C297        C  0.65921121  0.99663550  0.84054579     0.06900
C298        C  0.70824342  0.99880655  0.85336340    -0.27300
H299        H  0.63257474  0.98846566  0.69508451     0.11600
H300        H  0.69524311  0.99061157  0.63262424     0.12800
H301        H  0.80356076  0.00256988  0.86844268     0.11800
H302        H  0.86619516  0.00400215  0.80608257     0.11100
H303        H  0.88955316  0.00491042  0.72073895     0.16500
H304        H  0.78049516  0.99669392  0.60981636     0.12400
H305        H  0.60908574  0.99140024  0.78071000     0.15200
H306        H  0.71857675  0.00105991  0.89109853     0.15000
C307        C  0.16288879  0.98797541  0.80530044    -0.17900
C308        C  0.19855513  0.98829522  0.84123994    -0.20000
C309        C  0.24735939  0.99334380  0.82877909     0.20600
C310        C  0.26018290  0.99840051  0.77961222    -0.02900
C311        C  0.22426174  0.99847970  0.74348160    -0.06000
C312        C  0.17534677  0.99300613  0.75626371     0.20900
C313        C  0.23743843  0.00398005  0.69451044     0.19100
C314        C  0.28606115  0.00938776  0.68194326    -0.17500
C315        C  0.32157422  0.00890855  0.71759401    -0.19700
C316        C  0.30897681  0.00337510  0.76638679     0.20600
C317        C  0.34454032  0.00297721  0.80204639    -0.32700
C318        C  0.33243203  0.99830945  0.85125539     0.01200
C319        C  0.28358756  0.99347343  0.86441127    -0.24100
C320        C  0.13995666  0.99257442  0.71974964    -0.28600
C321        C  0.15302475  0.99773808  0.67067143     0.06900
C322        C  0.20193312  0.00376107  0.65871062    -0.27300
H323        H  0.12553856  0.98381342  0.81587352     0.11600
H324        H  0.18796640  0.98443411  0.87877835     0.12800
H325        H  0.29666442  0.01374273  0.64446075     0.11800
H326        H  0.35893989  0.01293034  0.70698862     0.11100
H327        H  0.38187088  0.00680639  0.79119390     0.16500
H328        H  0.27375684  0.98972417  0.90218231     0.12400
H329        H  0.10243042  0.98795941  0.72952770     0.15200
H330        H  0.21267950  0.00819343  0.62126300     0.15000
C331        C  0.18813065  0.93198679  0.22321524    -0.17900
C332        C  0.22433177  0.93157430  0.18801605    -0.20000
C333        C  0.26698537  0.95781956  0.19491434     0.20600
C334        C  0.27395412  0.98346598  0.23839626    -0.02900
C335        C  0.23759198  0.98364965  0.27397986    -0.06000
C336        C  0.19413299  0.95841624  0.26599616     0.20900
C337        C  0.24441221  0.00976870  0.31715507     0.19100
C338        C  0.28740340  0.03532626  0.32447787    -0.17500
C339        C  0.32332449  0.03537503  0.28909654    -0.19700
C340        C  0.31685769  0.00971245  0.24595400     0.20600
C341        C  0.35217009  0.01056125  0.20986737    -0.32700
C342        C  0.34475756  0.98637591  0.16595325     0.01200
C343        C  0.30237278  0.95970285  0.15876594    -0.24100
C344        C  0.15733389  0.96047794  0.30073133    -0.28600
C345        C  0.16405810  0.98641123  0.34377833     0.06900
C346        C  0.20786522  0.01042049  0.35199349    -0.27300
H347        H  0.15520291  0.91204331  0.21674434     0.11600
H348        H  0.21864047  0.91135030  0.15504064     0.12800
H349        H  0.29305902  0.05565020  0.35739640     0.11800
H350        H  0.35602439  0.05578032  0.29532077     0.11100
H351        H  0.38488964  0.03122653  0.21532994     0.16500
H352        H  0.29700629  0.94054566  0.12505878     0.12400
H353        H  0.12371774  0.94154028  0.29459301     0.15200
H354        H  0.21301904  0.03063490  0.38510480     0.15000
C355        C  0.72459480  0.04994252  0.31521715    -0.17900
C356        C  0.68833825  0.04841166  0.28025434    -0.20000
C357        C  0.69724929  0.02783330  0.23485909     0.20600
C358        C  0.74338875  0.00940311  0.22417318    -0.02900
C359        C  0.78002906  0.01091187  0.25953690    -0.06000
C360        C  0.77031616  0.03090266  0.30534775     0.20900
C361        C  0.82602364  0.99176066  0.24936205     0.19100
C362        C  0.83507599  0.97189341  0.20359812    -0.17500
C363        C  0.79874377  0.97050916  0.16845362    -0.19700
C364        C  0.75270082  0.98889008  0.17846911     0.20600
C365        C  0.71568475  0.98672532  0.14385170    -0.32700
C366        C  0.66938375  0.00438031  0.15460958     0.01200
C367        C  0.66062470  0.02500097  0.20018941    -0.24100
C368        C  0.80613889  0.03081794  0.34089443    -0.28600
C369        C  0.85179020  0.01097122  0.33160685     0.06900
C370        C  0.86175210  0.99208472  0.28542429    -0.27300
H371        H  0.71670503  0.06555310  0.35020654     0.11600
H372        H  0.65315785  0.06292469  0.28889303     0.12800
H373        H  0.87015516  0.95705045  0.19510874     0.11800
H374        H  0.80655136  0.95468581  0.13354724     0.11100
H375        H  0.72268259  0.97061695  0.10888149     0.16500
H376        H  0.62523101  0.03917669  0.20866159     0.12400
H377        H  0.79821303  0.04590821  0.37613128     0.15200
H378        H  0.89678215  0.97653666  0.27794684     0.15000
C379        C  0.98351708  0.28931698  0.67556351    -0.17900
C380        C  0.98296590  0.32482522  0.71129169    -0.20000
C381        C  0.99443232  0.31311207  0.75934158     0.20600
C382        C  0.00635520  0.26516876  0.77165732    -0.02900
C383        C  0.00699738  0.22933725  0.73557360    -0.06000
C384        C  0.99558389  0.24154986  0.68733208     0.20900
C385        C  0.01871876  0.18129422  0.74784127     0.19100
C386        C  0.02993713  0.16961022  0.79597342    -0.17500
C387        C  0.02921387  0.20513003  0.83177588    -0.19700
C388        C  0.01738068  0.25296354  0.82002345     0.20600
C389        C  0.01642917  0.28879053  0.85572959    -0.32700
C390        C  0.00517469  0.33681269  0.84356212     0.01200
C391        C  0.99410225  0.34854469  0.79524855    -0.24100
C392        C  0.99607699  0.20574176  0.65174663    -0.28600
C393        C  0.00737371  0.15763346  0.66368385     0.06900
C394        C  0.01868781  0.14573431  0.71186521    -0.27300
H395        H  0.97446229  0.29921257  0.63871402     0.11600
H396        H  0.97354578  0.36146759  0.70134138     0.12800
H397        H  0.03907835  0.13291908  0.80598067     0.11800
H398        H  0.03784767  0.19515831  0.86870264     0.11100
H399        H  0.02506553  0.27938307  0.89282723     0.16500
H400        H  0.98487038  0.38531343  0.78551267     0.12400
H401        H  0.98693861  0.21528460  0.61479853     0.15200
H402        H  0.02768252  0.10884855  0.72135181     0.15000
C403        C  0.02279793  0.83093579  0.79491503    -0.17900
C404        C  0.02532825  0.79479889  0.83024638    -0.20000
C405        C  0.01075242  0.74754280  0.81960385     0.20600
C406        C  0.99365376  0.73650739  0.77285863    -0.02900
C407        C  0.99124073  0.77288600  0.73721635    -0.06000
C408        C  0.00572958  0.82035027  0.74837090     0.20900
C409        C  0.97441863  0.76169527  0.69042572     0.19100
C410        C  0.95990144  0.71448329  0.67970726    -0.17500
C411        C  0.96199539  0.67849736  0.71512324    -0.19700
C412        C  0.97894266  0.68912790  0.76168481     0.20600
C413        C  0.98157063  0.65312655  0.79718826    -0.32700
C414        C  0.99878639  0.66371859  0.84381159     0.01200
C415        C  0.01304973  0.71111762  0.85482802    -0.24100
C416        C  0.00333331  0.85624994  0.71265507    -0.28600
C417        C  0.98731377  0.84511367  0.66571409     0.06900
C418        C  0.97266467  0.79779801  0.65503191    -0.27300
H419        H  0.03424756  0.86715961  0.80397896     0.11600
H420        H  0.03864472  0.80382319  0.86592729     0.12800
H421        H  0.94691469  0.70538797  0.64391819     0.11800
H422        H  0.95052902  0.64228753  0.70604129     0.11100
H423        H  0.96995612  0.61683057  0.78852594     0.16500
H424        H  0.02644145  0.71957023  0.89064769     0.12400
H425        H  0.01513326  0.89253602  0.72110329     0.15200
H426        H  0.96012321  0.78890844  0.61900560     0.15000
C427        C  0.00644726  0.70890512  0.32687429    -0.17900
C428        C  0.00512222  0.67309291  0.29148140    -0.20000
C429        C  0.99895826  0.68545844  0.24262218     0.20600
C430        C  0.99406801  0.73435641  0.22922641    -0.02900
C431        C  0.99565340  0.77056109  0.26496860    -0.06000
C432        C  0.00171030  0.75766641  0.31398710     0.20900
C433        C  0.99115485  0.81955258  0.25168024     0.19100
C434        C  0.98482301  0.83180827  0.20274769    -0.17500
C435        C  0.98295505  0.79588351  0.16733452    -0.19700
C436        C  0.98775294  0.74709883  0.18017087     0.20600
C437        C  0.98682824  0.71092030  0.14480544    -0.32700
C438        C  0.99238841  0.66209540  0.15780530     0.01200
C439        C  0.99801391  0.64975662  0.20695456    -0.24100
C440        C  0.00273299  0.79364152  0.34939725    -0.28600
C441        C  0.99808023  0.84266703  0.33675493     0.06900
C442        C  0.99269612  0.85531650  0.28758457    -0.27300
H443        H  0.01118208  0.69844955  0.36437899     0.11600
H444        H  0.00895673  0.63569641  0.30233664     0.12800
H445        H  0.98119282  0.86920705  0.19185904     0.11800
H446        H  0.97800241  0.80629013  0.12984267     0.11100
H447        H  0.98208072  0.72087958  0.10715209     0.16500
H448        H  0.00231508  0.61232800  0.21758035     0.12400
H449        H  0.00726647  0.78328292  0.38696750     0.15200
H450        H  0.98905929  0.89289045  0.27725557     0.15000
C451        C  0.97586026  0.32189963  0.28894853    -0.17900
C452        C  0.97846172  0.28633694  0.32472086    -0.20000
C453        C  0.99426848  0.23971135  0.31324640     0.20600
C454        C  0.00815487  0.22883469  0.26545866    -0.02900
C455        C  0.00562144  0.26477726  0.22935328    -0.06000
C456        C  0.98908183  0.31136885  0.24120195     0.20900
C457        C  0.01924018  0.25399829  0.18142318     0.19100
C458        C  0.03610229  0.20764001  0.17025266    -0.17500
C459        C  0.03841726  0.17189562  0.20606286    -0.19700
C460        C  0.02407589  0.18197630  0.25365743     0.20600
C461        C  0.02499497  0.14601248  0.28956697    -0.32700
C462        C  0.01076084  0.15656141  0.33722164     0.01200
C463        C  0.99591564  0.20369239  0.34871933    -0.24100
C464        C  0.98583114  0.34664674  0.20512607    -0.28600
C465        C  0.99877437  0.33615134  0.15714342     0.06900
C466        C  0.01560358  0.28972141  0.14555751    -0.27300
H467        H  0.96326080  0.35758397  0.29857710     0.11600
H468        H  0.96778254  0.29520990  0.36131920     0.12800
H469        H  0.04710765  0.19890001  0.13371590     0.11800
H470        H  0.05110616  0.13625050  0.19644913     0.11100
H471        H  0.03688211  0.10993702  0.28046122     0.16500
H472        H  0.98468595  0.21227302  0.38524867     0.12400
H473        H  0.97290779  0.38231076  0.21448717     0.15200
H474        H  0.02630237  0.28147925  0.10878894     0.15000
loop_ 
_geom_bond_atom_site_label_1 
_geom_bond_atom_site_label_2 
_geom_bond_distance 
_geom_bond_site_symmetry_2 
_ccdc_geom_bond_type 
O1          Zr13   2.441       .  S
O1            C3   1.289       .  A
O2          Zr39   2.422   1_645  S
O2            C3   1.286       .  A
C3          C369   1.481       .  S
O4          Zr16   2.433       .  S
O4            C6   1.286       .  A
O5          Zr40   2.427   1_455  S
O5            C6   1.287       .  A
C6          C393   1.481       .  S
O7          Zr16   2.428       .  S
O7            C9   1.287       .  A
O8          Zr39   2.432   1_545  S
O8            C9   1.288       .  A
C9          C462   1.481       .  S
O10         Zr13   2.448       .  S
O10          C12   1.289       .  A
O11         Zr40   2.429       .  S
O11          C12   1.288       .  A
C12         C294   1.490       .  S
Zr13         O14   2.434       .  S
Zr13         O15   2.435   1_545  S
Zr13         O19   2.371       .  S
Zr13         O20   2.367       .  S
Zr13         O43   2.370   1_545  S
Zr13         O45   2.372   1_545  S
O14          H57   0.990       .  S
O15          H56   0.990       .  S
O15          H60   0.990       .  S
Zr16         O17   2.435   1_455  S
Zr16         O18   2.434       .  S
Zr16         O20   2.370   1_455  S
Zr16         O19   2.371   1_455  S
Zr16         O44   2.371       .  S
Zr16         O46   2.367       .  S
O17          H58   0.990       .  S
O17          H61   0.990       .  S
O18          H51   0.990       .  S
O19         Zr39   2.386   1_645  S
O20         Zr40   2.382       .  S
O20          H47   0.966       .  S
O21         Zr33   2.436       .  S
O21          C23   1.288       .  A
O22         Zr40   2.412   1_565  S
O22          C23   1.285       .  A
C23         C417   1.476       .  S
O24         Zr36   2.432       .  S
O24          C26   1.287       .  A
O25         Zr39   2.429       .  S
O25          C26   1.287       .  A
C26         C345   1.473       .  S
O27         Zr36   2.440       .  S
O27          C29   1.289       .  A
O28         Zr40   2.430   1_465  S
O28          C29   1.287       .  A
C29         C321   1.487       .  S
O30         Zr33   2.448       .  S
O30          C32   1.290       .  A
O31         Zr39   2.425       .  S
O31          C32   1.287   1_455  A
C32         C441   1.488       .  S
Zr33         O34   2.436   1_655  S
Zr33         O35   2.434       .  S
Zr33         O41   2.374   1_655  S
Zr33         O42   2.367   1_655  S
Zr33         O45   2.366       .  S
Zr33         O43   2.374       .  S
O34          H54   0.990       .  S
O34          H59   0.990       .  S
O35          H55   0.990       .  S
Zr36         O37   2.436       .  S
Zr36         O38   2.435   1_565  S
Zr36         O42   2.370       .  S
Zr36         O41   2.364       .  S
Zr36         O46   2.370   1_565  S
Zr36         O44   2.372   1_565  S
O37          H53   0.990       .  S
O38          H52   0.990       .  S
O38          H62   0.990       .  S
Zr39         O42   2.380       .  S
Zr39         O44   2.387   1_565  S
Zr39         O45   2.388   1_455  S
Zr40         O41   2.387   1_645  S
Zr40         O43   2.386   1_545  S
Zr40         O46   2.379   1_655  S
O41          H49   0.964       .  S
O44          H48   0.965       .  S
O45          H50   0.966       .  S
O63         Zr75   2.433       .  S
O63          C65   1.287       .  A
O64        Zr101   2.417       .  S
O64          C65   1.285       .  A
C65         C465   1.477       .  S
O66         Zr78   2.440       .  S
O66          C68   1.290       .  A
O67        Zr102   2.429   1_656  S
O67          C68   1.288       .  A
C68         C201   1.488       .  S
O69         Zr78   2.435       .  S
O69          C71   1.287       .  A
O70        Zr101   2.429   1_556  S
O70          C71   1.288       .  A
C71         C225   1.485       .  S
O72         Zr75   2.432       .  S
O72          C74   1.287       .  A
O73        Zr102   2.426   1_655  S
O73          C74   1.287       .  A
C74         C438   1.483       .  S
Zr75         O76   2.435       .  S
Zr75         O77   2.437   1_655  S
Zr75         O81   2.364       .  S
Zr75         O82   2.365       .  S
Zr75        O105   2.377   1_655  S
Zr75        O107   2.374   1_655  S
O76         H119   0.990       .  S
O77         H118   0.990       .  S
O77         H122   0.990       .  S
Zr78         O79   2.435   1_556  S
Zr78         O80   2.435       .  S
Zr78         O82   2.367   1_556  S
Zr78         O81   2.372   1_556  S
Zr78        O106   2.367       .  S
Zr78        O108   2.368       .  S
O79         H120   0.990       .  S
O79         H123   0.990       .  S
O80         H113   0.990       .  S
O81        Zr101   2.381       .  S
O82        Zr102   2.384   1_655  S
O82         H109   0.966       .  S
O83         Zr95   2.440       .  S
O83          C85   1.288       .  A
O84        Zr102   2.432       .  S
O84          C85   1.288       .  A
C85         C246   1.489       .  S
O86         Zr98   2.435       .  S
O86          C88   1.288       .  A
O87        Zr101   2.422   1_456  S
O87          C88   1.286       .  A
C88         C390   1.480       .  S
O89         Zr98   2.440       .  S
O89          C91   1.288       .  A
O90        Zr102   2.417   1_556  S
O90          C91   1.285       .  A
C91         C414   1.478   1_455  S
O92         Zr95   2.448       .  S
O92          C94   1.290       .  A
O93        Zr101   2.421   1_455  S
O93          C94   1.286       .  A
C94         C273   1.483       .  S
Zr95         O96   2.438   1_554  S
Zr95         O97   2.436       .  S
Zr95        O103   2.375   1_554  S
Zr95        O104   2.375   1_554  S
Zr95        O107   2.364       .  S
Zr95        O105   2.372       .  S
O96         H116   0.990       .  S
O96         H121   0.990       .  S
O97         H117   0.990       .  S
Zr98         O99   2.435       .  S
Zr98        O100   2.437   1_455  S
Zr98        O104   2.369       .  S
Zr98        O103   2.371       .  S
Zr98        O108   2.367   1_455  S
Zr98        O106   2.371   1_455  S
O99         H115   0.990       .  S
O100        H114   0.990       .  S
O100        H124   0.990       .  S
Zr101       O104   2.382   1_654  S
Zr101       O106   2.384   1_554  S
Zr101       O107   2.385   1_655  S
Zr102       O103   2.387   1_554  S
Zr102       O105   2.383       .  S
Zr102       O108   2.382   1_454  S
O103        H111   0.964       .  S
O106        H110   0.965       .  S
O107        H112   0.965       .  S
O125       Zr137   2.431       .  S
O125        C127   1.287       .  A
O126       Zr163   2.422   1_554  S
O126        C127   1.287       .  A
C127        C222   1.481       .  S
O128       Zr140   2.428       .  S
O128        C130   1.286       .  A
O129       Zr164   2.424       .  S
O129        C130   1.287       .  A
C130        C342   1.470       .  S
O131       Zr140   2.435   1_545  S
O131        C133   1.287       .  A
O132       Zr163   2.429   1_564  S
O132        C133   1.287   1_565  A
C133        C366   1.481       .  S
O134       Zr137   2.443       .  S
O134        C136   1.289       .  A
O135       Zr164   2.437   1_545  S
O135        C136   1.289       .  A
C136        C270   1.489       .  S
Zr137       O138   2.434       .  S
Zr137       O139   2.435   1_554  S
Zr137       O143   2.373       .  S
Zr137       O144   2.371       .  S
Zr137       O167   2.369   1_554  S
Zr137       O169   2.372   1_554  S
O138        H181   0.990       .  S
O139        H180   0.990       .  S
O139        H184   0.990       .  S
Zr140       O141   2.435   1_565  S
Zr140       O142   2.435       .  S
Zr140       O144   2.375   1_565  S
Zr140       O143   2.367   1_565  S
Zr140       O168   2.369       .  S
Zr140       O170   2.371       .  S
O141        H182   0.990       .  S
O141        H185   0.990       .  S
O142        H175   0.990       .  S
O143       Zr163   2.380   1_554  S
O144       Zr164   2.384   1_545  S
O144        H171   0.966       .  S
O145       Zr157   2.432       .  S
O145        C147   1.288   1_545  A
O146       Zr164   2.427   1_556  S
O146        C147   1.287       .  A
C147        C318   1.483       .  S
O148       Zr160   2.447   1_556  S
O148        C150   1.290       .  A
O149       Zr163   2.422   1_565  S
O149        C150   1.286       .  A
C150        C198   1.488       .  S
O151       Zr160   2.444       .  S
O151        C153   1.289       .  A
O152       Zr164   2.420       .  S
O152        C153   1.287       .  A
C153        C249   1.486       .  S
O154       Zr157   2.443   1_565  S
O154        C156   1.288       .  A
O155       Zr163   2.424       .  S
O155        C156   1.287   1_545  A
C156        C297   1.487       .  S
Zr157       O158   2.435   1_545  S
Zr157       O159   2.435       .  S
Zr157       O165   2.368   1_545  S
Zr157       O166   2.369   1_545  S
Zr157       O169   2.365       .  S
Zr157       O167   2.372       .  S
O158        H178   0.990       .  S
O158        H183   0.990       .  S
O159        H179   0.990       .  S
Zr160       O161   2.435   1_554  S
Zr160       O162   2.434       .  S
Zr160       O166   2.367   1_554  S
Zr160       O165   2.366   1_554  S
Zr160       O170   2.370       .  S
Zr160       O168   2.371       .  S
O161        H177   0.990       .  S
O162        H176   0.990       .  S
O162        H186   0.990       .  S
Zr163       O166   2.380   1_545  S
Zr163       O168   2.383   1_546  S
Zr163       O169   2.385       .  S
Zr164       O165   2.385   1_554  S
Zr164       O167   2.383   1_564  S
Zr164       O170   2.384       .  S
O165        H173   0.964       .  S
O168        H172   0.966       .  S
O169        H174   0.966       .  S
C187        C188   1.396       .  A
C187        C192   1.402       .  A
C187        H203   1.084       .  S
C188        C189   1.402       .  A
C188        H204   1.084       .  S
C189        C199   1.399       .  A
C189        C190   1.410       .  A
C190        C196   1.411       .  A
C190        C191   1.413       .  A
C191        C193   1.411       .  A
C191        C192   1.411       .  A
C192        C200   1.400       .  A
C193        C202   1.407       .  A
C193        C194   1.405       .  A
C194        C195   1.402       .  A
C194        H205   1.084       .  S
C195        C196   1.405       .  A
C195        H206   1.084       .  S
C196        C197   1.408       .  A
C197        C198   1.412       .  A
C197        H207   1.084       .  S
C198        C199   1.408       .  A
C199        H208   1.084       .  S
C200        C201   1.408       .  A
C200        H209   1.084       .  S
C201        C202   1.411       .  A
C202        H210   1.084       .  S
C211        C212   1.399       .  A
C211        C216   1.404       .  A
C211        H227   1.083       .  S
C212        C213   1.403   1_556  A
C212        H228   1.084       .  S
C213        C223   1.402       .  A
C213        C214   1.411       .  A
C214        C220   1.410       .  A
C214        C215   1.411       .  A
C215        C217   1.410       .  A
C215        C216   1.411   1_554  A
C216        C224   1.404       .  A
C217        C226   1.400       .  A
C217        C218   1.403       .  A
C218        C219   1.397       .  A
C218        H229   1.084       .  S
C219        C220   1.403       .  A
C219        H230   1.084       .  S
C220        C221   1.399       .  A
C221        C222   1.408       .  A
C221        H231   1.084       .  S
C222        C223   1.408       .  A
C223        H232   1.084   1_554  S
C224        C225   1.408       .  A
C224        H233   1.084       .  S
C225        C226   1.409   1_556  A
C226        H234   1.084       .  S
C235        C236   1.398       .  A
C235        C240   1.403       .  A
C235        H251   1.084       .  S
C236        C237   1.404       .  A
C236        H252   1.084       .  S
C237        C247   1.402       .  A
C237        C238   1.410       .  A
C238        C244   1.411       .  A
C238        C239   1.412       .  A
C239        C241   1.411       .  A
C239        C240   1.411       .  A
C240        C248   1.401       .  A
C241        C250   1.404       .  A
C241        C242   1.404       .  A
C242        C243   1.400       .  A
C242        H253   1.084       .  S
C243        C244   1.404       .  A
C243        H254   1.083       .  S
C244        C245   1.405       .  A
C245        C246   1.409       .  A
C245        H255   1.084       .  S
C246        C247   1.410       .  A
C247        H256   1.084       .  S
C248        C249   1.409       .  A
C248        H257   1.084       .  S
C249        C250   1.409       .  A
C250        H258   1.084       .  S
C259        C260   1.398       .  A
C259        C264   1.403       .  A
C259        H275   1.084       .  S
C260        C261   1.404       .  A
C260        H276   1.084       .  S
C261        C271   1.403       .  A
C261        C262   1.411   1_556  A
C262        C268   1.411       .  A
C262        C263   1.414       .  A
C263        C265   1.412       .  A
C263        C264   1.411   1_554  A
C264        C272   1.401       .  A
C265        C274   1.406       .  A
C265        C266   1.404       .  A
C266        C267   1.401       .  A
C266        H277   1.084       .  S
C267        C268   1.405       .  A
C267        H278   1.083       .  S
C268        C269   1.407       .  A
C269        C270   1.410       .  A
C269        H279   1.084       .  S
C270        C271   1.409   1_554  A
C271        H280   1.084       .  S
C272        C273   1.407   1_556  A
C272        H281   1.084       .  S
C273        C274   1.409       .  A
C274        H282   1.084       .  S
C283        C284   1.400       .  A
C283        C288   1.404       .  A
C283        H299   1.084       .  S
C284        C285   1.405       .  A
C284        H300   1.084       .  S
C285        C295   1.405       .  A
C285        C286   1.411       .  A
C286        C292   1.411   1_565  A
C286        C287   1.413       .  A
C287        C289   1.411       .  A
C287        C288   1.411       .  A
C288        C296   1.405       .  A
C289        C298   1.402       .  A
C289        C290   1.403   1_565  A
C290        C291   1.398       .  A
C290        H301   1.084       .  S
C291        C292   1.403       .  A
C291        H302   1.083       .  S
C292        C293   1.404       .  A
C293        C294   1.409       .  A
C293        H303   1.084       .  S
C294        C295   1.411   1_545  A
C295        H304   1.084       .  S
C296        C297   1.411       .  A
C296        H305   1.084       .  S
C297        C298   1.408       .  A
C298        H306   1.084   1_565  S
C307        C308   1.403       .  A
C307        C312   1.406       .  A
C307        H323   1.083       .  S
C308        C309   1.405       .  A
C308        H324   1.084       .  S
C309        C319   1.408       .  A
C309        C310   1.412       .  A
C310        C316   1.410   1_565  A
C310        C311   1.411       .  A
C311        C313   1.410   1_565  A
C311        C312   1.411       .  A
C312        C320   1.409       .  A
C313        C322   1.397       .  A
C313        C314   1.402       .  A
C314        C315   1.394       .  A
C314        H325   1.084       .  S
C315        C316   1.401       .  A
C315        H326   1.084       .  S
C316        C317   1.395       .  A
C317        C318   1.407   1_545  A
C317        H327   1.084       .  S
C318        C319   1.410       .  A
C319        H328   1.084       .  S
C320        C321   1.411       .  A
C320        H329   1.084       .  S
C321        C322   1.407   1_565  A
C322        H330   1.084       .  S
C331        C332   1.399       .  A
C331        C336   1.404       .  A
C331        H347   1.084       .  S
C332        C333   1.403       .  A
C332        H348   1.084       .  S
C333        C343   1.402       .  A
C333        C334   1.412       .  A
C334        C340   1.412   1_565  A
C334        C335   1.410       .  A
C335        C337   1.411   1_565  A
C335        C336   1.412       .  A
C336        C344   1.404       .  A
C337        C346   1.399       .  A
C337        C338   1.403       .  A
C338        C339   1.397       .  A
C338        H349   1.084       .  S
C339        C340   1.403       .  A
C339        H350   1.084       .  S
C340        C341   1.399       .  A
C341        C342   1.404   1_545  A
C341        H351   1.085       .  S
C342        C343   1.404       .  A
C343        H352   1.085       .  S
C344        C345   1.405       .  A
C344        H353   1.084       .  S
C345        C346   1.405   1_565  A
C346        H354   1.085       .  S
C355        C356   1.396       .  A
C355        C360   1.402       .  A
C355        H371   1.084       .  S
C356        C357   1.403       .  A
C356        H372   1.084       .  S
C357        C367   1.400       .  A
C357        C358   1.411       .  A
C358        C364   1.412   1_545  A
C358        C359   1.412       .  A
C359        C361   1.412   1_545  A
C359        C360   1.410       .  A
C360        C368   1.398       .  A
C361        C370   1.406       .  A
C361        C362   1.405       .  A
C362        C363   1.401       .  A
C362        H373   1.084       .  S
C363        C364   1.404       .  A
C363        H374   1.084       .  S
C364        C365   1.406       .  A
C365        C366   1.408   1_565  A
C365        H375   1.084       .  S
C366        C367   1.407       .  A
C367        H376   1.084       .  S
C368        C369   1.406       .  A
C368        H377   1.084       .  S
C369        C370   1.409   1_545  A
C370        H378   1.084       .  S
C379        C380   1.397       .  A
C379        C384   1.403       .  A
C379        H395   1.084       .  S
C380        C381   1.403       .  A
C380        H396   1.084       .  S
C381        C391   1.399       .  A
C381        C382   1.411   1_655  A
C382        C388   1.412       .  A
C382        C383   1.411       .  A
C383        C385   1.412       .  A
C383        C384   1.411   1_455  A
C384        C392   1.400       .  A
C385        C394   1.403       .  A
C385        C386   1.403       .  A
C386        C387   1.399       .  A
C386        H397   1.084       .  S
C387        C388   1.403       .  A
C387        H398   1.084       .  S
C388        C389   1.403       .  A
C389        C390   1.407       .  A
C389        H399   1.084       .  S
C390        C391   1.408   1_455  A
C391        H400   1.084       .  S
C392        C393   1.408   1_655  A
C392        H401   1.084       .  S
C393        C394   1.407       .  A
C394        H402   1.084       .  S
C403        C404   1.398       .  A
C403        C408   1.403       .  A
C403        H419   1.084       .  S
C404        C405   1.403       .  A
C404        H420   1.084       .  S
C405        C415   1.402       .  A
C405        C406   1.411   1_455  A
C406        C412   1.411       .  A
C406        C407   1.409       .  A
C407        C409   1.411       .  A
C407        C408   1.411   1_655  A
C408        C416   1.401       .  A
C409        C418   1.398       .  A
C409        C410   1.402       .  A
C410        C411   1.397       .  A
C410        H421   1.084       .  S
C411        C412   1.403       .  A
C411        H422   1.084       .  S
C412        C413   1.399       .  A
C413        C414   1.407       .  A
C413        H423   1.084       .  S
C414        C415   1.407   1_655  A
C415        H424   1.084       .  S
C416        C417   1.407   1_455  A
C416        H425   1.084       .  S
C417        C418   1.406       .  A
C418        H426   1.084       .  S
C427        C428   1.397       .  A
C427        C432   1.403       .  A
C427        H443   1.084       .  S
C428        C429   1.403   1_455  A
C428        H444   1.084       .  S
C429        C439   1.400       .  A
C429        C430   1.411       .  A
C430        C436   1.411       .  A
C430        C431   1.412       .  A
C431        C433   1.411       .  A
C431        C432   1.410   1_655  A
C432        C440   1.401       .  A
C433        C442   1.406       .  A
C433        C434   1.405       .  A
C434        C435   1.400       .  A
C434        H445   1.083       .  S
C435        C436   1.404       .  A
C435        H446   1.084       .  S
C436        C437   1.404       .  A
C437        C438   1.408       .  A
C437        H447   1.084       .  S
C438        C439   1.409       .  A
C439        H448   1.084   1_655  S
C440        C441   1.408   1_455  A
C440        H449   1.084       .  S
C441        C442   1.411       .  A
C442        H450   1.084       .  S
C451        C452   1.396       .  A
C451        C456   1.402       .  A
C451        H467   1.084       .  S
C452        C453   1.403       .  A
C452        H468   1.084       .  S
C453        C463   1.398       .  A
C453        C454   1.410   1_655  A
C454        C460   1.412       .  A
C454        C455   1.410       .  A
C455        C457   1.411       .  A
C455        C456   1.411   1_455  A
C456        C464   1.397       .  A
C457        C466   1.403       .  A
C457        C458   1.404       .  A
C458        C459   1.400       .  A
C458        H469   1.084       .  S
C459        C460   1.404       .  A
C459        H470   1.083       .  S
C460        C461   1.405       .  A
C461        C462   1.407       .  A
C461        H471   1.084       .  S
C462        C463   1.408   1_455  A
C463        H472   1.084       .  S
C464        C465   1.406       .  A
C464        H473   1.084       .  S
C465        C466   1.408   1_655  A
C466        H474   1.084       .  S
