geometry optimzed in LAMMPS
_audit_creation_date              2020-11-30 
_audit_creation_method            'lammps2cif' 
_symmetry_space_group_name_H-M    'P1' 
_symmetry_Int_Tables_number       1 
_symmetry_cell_setting            triclinic 
loop_ 
_symmetry_equiv_pos_as_xyz 
  x,y,z 
_cell_length_a                    28.90382641059734 
_cell_length_b                    28.967108849961654 
_cell_length_c                    29.080484177633803 
_cell_angle_alpha                 89.98303154913793 
_cell_angle_beta                  89.91461856602632 
_cell_angle_gamma                 89.87928016029603 
loop_ 
_atom_site_label 
_atom_site_type_symbol 
_atom_site_fract_x 
_atom_site_fract_y 
_atom_site_fract_z 
_atom_site_charge 
O1          O  0.12128797  0.52657089  0.17586699    -0.86210
O2          O  0.16592778  0.56659973  0.24948185    -0.83250
C3          C  0.19559667  0.57272399  0.28066508     0.97250
O4          O  0.23486429  0.55322062  0.27817347    -0.83290
O5          O  0.21880113  0.46064324  0.28869925    -0.85930
C6          C  0.20384721  0.42047926  0.28133908     1.01780
O7          O  0.19740952  0.40701770  0.24046351    -0.78690
O8          O  0.12427126  0.45884529  0.20918772    -0.78880
C9          C  0.10133377  0.49292709  0.19519439     1.01730
O10         O  0.20440333  0.53800593  0.12175005    -0.86210
O11         O  0.24390596  0.58718106  0.19347019    -0.83270
C12         C  0.28580241  0.57488177  0.19237147     0.97270
O13         O  0.29556413  0.53337962  0.20146563    -0.83300
O14         O  0.28577070  0.43927347  0.21783630    -0.85900
C15         C  0.28062970  0.41808415  0.18002154     1.01750
O16         O  0.24521721  0.42467142  0.15574440    -0.78720
O17         O  0.16996299  0.47046896  0.12085058    -0.78870
C18         C  0.18885871  0.50385424  0.09976360     1.01710
Cr19       Cr  0.18558145  0.55040949  0.18623384     1.93740
Cr20       Cr  0.25544992  0.49652285  0.24352669     1.93210
Cr21       Cr  0.18584336  0.44448963  0.18317936     1.39100
O22         O  0.20914701  0.49698560  0.20429921    -1.23960
O23         O  0.88126315  0.47002479  0.17416460    -0.86210
O24         O  0.84243180  0.42746866  0.24949923    -0.83250
C25         C  0.81473718  0.41978865  0.28217714     0.97250
O26         O  0.77491811  0.43750537  0.28197760    -0.83290
O27         O  0.79490719  0.52929776  0.29645867    -0.85930
C28         C  0.80457462  0.57110680  0.28914311     1.01780
O29         O  0.80823208  0.58584249  0.24817930    -0.78690
O30         O  0.88011732  0.53911278  0.20479615    -0.78880
C31         C  0.90236653  0.50431914  0.19065438     1.01730
O32         O  0.79637275  0.45908162  0.12483371    -0.86210
O33         O  0.76023904  0.40967131  0.19649590    -0.83270
C34         C  0.71872280  0.42327599  0.19681823     0.97270
O35         O  0.70959029  0.46298397  0.21259410    -0.83300
O36         O  0.72306552  0.55501521  0.23711631    -0.85900
C37         C  0.71999236  0.57616971  0.19959659     1.01750
O38         O  0.75061625  0.56989029  0.16928097    -0.78720
O39         O  0.82415193  0.52957551  0.12266151    -0.78870
C40         C  0.80863213  0.49413589  0.10223139     1.01710
Cr41       Cr  0.81845128  0.44568071  0.18791046     1.93740
Cr42       Cr  0.75376996  0.49617609  0.25348693     1.93210
Cr43       Cr  0.81461715  0.55194718  0.18773466     1.39100
O44         O  0.79583992  0.49805777  0.20956054    -1.23960
O45         O  0.47290299  0.82838449  0.11920491    -0.86210
O46         O  0.43044702  0.75195651  0.15925076    -0.83250
C47         C  0.42432198  0.71901941  0.18704311     0.97250
O48         O  0.44454653  0.71902311  0.22556652    -0.83290
O49         O  0.53675893  0.70934994  0.20552854    -0.85930
C50         C  0.57832540  0.71803357  0.19619227     1.01780
O51         O  0.59155076  0.75948053  0.19357969    -0.78690
O52         O  0.54102208  0.79533435  0.12119603    -0.78880
C53         C  0.50718619  0.81060881  0.09848512     1.01730
O54         O  0.46102863  0.87735664  0.20458171    -0.86210
O55         O  0.41182815  0.80386824  0.24060536    -0.83270
C56         C  0.42559446  0.80028322  0.28175143     0.97270
O57         O  0.46725167  0.79057162  0.28975815    -0.83300
O58         O  0.55977296  0.77265929  0.27808775    -0.85900
C59         C  0.57922456  0.81174351  0.27843140     1.01750
O60         O  0.57229861  0.83992897  0.24609268    -0.78720
O61         O  0.52891390  0.88039954  0.17108967    -0.78870
C62         C  0.49471826  0.90051692  0.18960008     1.01710
Cr63       Cr  0.44810672  0.81417650  0.18239460     1.93740
Cr64       Cr  0.50207315  0.75102900  0.24665654     1.93210
Cr65       Cr  0.55435405  0.81721270  0.18419605     1.39100
O66         O  0.50146827  0.79424184  0.20447544    -1.23960
O67         O  0.53428577  0.20528666  0.12273731    -0.86210
O68         O  0.58704761  0.24299422  0.19313531    -0.83250
C69         C  0.57474714  0.28471993  0.19199965     0.97250
O70         O  0.53299417  0.29417637  0.19977019    -0.83290
O71         O  0.43978572  0.28514673  0.21732989    -0.85930
C72         C  0.41796881  0.27851926  0.17998753     1.01780
O73         O  0.42334146  0.24178050  0.15761943    -0.78690
O74         O  0.46941277  0.16684086  0.12336459    -0.78880
C75         C  0.50092988  0.18750607  0.10118651     1.01730
O76         O  0.52629178  0.12085879  0.17461935    -0.86210
O77         O  0.56737240  0.16521063  0.24821934    -0.83270
C78         C  0.57440629  0.19501093  0.27903993     0.97270
O79         O  0.55497123  0.23440417  0.27679239    -0.83300
O80         O  0.46211961  0.22139003  0.29117733    -0.85900
C81         C  0.42242209  0.20521044  0.28413976     1.01750
O82         O  0.40901268  0.19587387  0.24377414    -0.78720
O83         O  0.46092084  0.12283454  0.21226066    -0.78870
C84         C  0.49369896  0.10008692  0.19495146     1.01710
Cr85       Cr  0.54981081  0.18515286  0.18576935     1.93740
Cr86       Cr  0.49731188  0.25536921  0.24346583     1.93210
Cr87       Cr  0.44460560  0.18353118  0.18590776     1.39100
O88         O  0.49693880  0.20800587  0.20555270    -1.23960
O89         O  0.53555162  0.11781893  0.79729987    -0.86210
O90         O  0.58928766  0.18484949  0.75893541    -0.83250
C91         C  0.57777443  0.18858511  0.71725751     0.97250
O92         O  0.53824448  0.20420179  0.70731345    -0.83290
O93         O  0.44579056  0.22811091  0.72020129    -0.85930
C94         C  0.42269329  0.19116465  0.72119147     1.01780
O95         O  0.42736264  0.16374449  0.75458412    -0.78690
O96         O  0.46713318  0.12138972  0.82976684    -0.78880
C97         C  0.49988975  0.09800986  0.81250665     1.01730
O98         O  0.52814648  0.16975746  0.88025903    -0.86210
O99         O  0.57593886  0.24227786  0.83855310    -0.83270
C100        C  0.58357175  0.27498604  0.81074433     0.97030
O101        O  0.56485414  0.27457674  0.77138972    -0.83300
O102        O  0.47246692  0.29289037  0.78824033    -0.85900
C103        C  0.43101828  0.28732004  0.80034309     1.01750
O104        O  0.41499749  0.24719008  0.80638854    -0.78720
O105        O  0.46338847  0.20845573  0.87855061    -0.78870
C106        C  0.49605114  0.19065777  0.90115953     1.01710
Cr107      Cr  0.55329239  0.18060641  0.81710053     1.93740
Cr108      Cr  0.50510889  0.24649307  0.75022950     1.93210
Cr109      Cr  0.44751566  0.18655246  0.81585945     1.39100
O110        O  0.50193656  0.20449980  0.79423475    -1.23960
O111        O  0.82251386  0.11923581  0.46982091    -0.86210
O112        O  0.74773518  0.16035616  0.42575246    -0.83250
C113        C  0.71489246  0.18842984  0.41903220     0.97250
O114        O  0.71538854  0.22696329  0.43855184    -0.83290
O115        O  0.70150276  0.20475123  0.53232912    -0.85930
C116        C  0.71296473  0.19083556  0.57224540     1.01780
O117        O  0.75426877  0.19471168  0.58452841    -0.78690
O118        O  0.79459716  0.12274996  0.54001141    -0.78880
C119        C  0.80758062  0.09956217  0.50562819     1.01730
O120        O  0.87440083  0.20395447  0.45928329    -0.86210
O121        O  0.80289643  0.24019146  0.40979344    -0.83270
C122        C  0.80086170  0.28177117  0.42197684     0.97270
O123        O  0.78382691  0.29159815  0.46098495    -0.83300
O124        O  0.76241554  0.28003042  0.55286133    -0.85900
C125        C  0.79974802  0.28259614  0.57482462     1.01750
O126        O  0.83103715  0.25245087  0.56869905    -0.78720
O127        O  0.87589680  0.17557577  0.52863070    -0.78870
C128        C  0.89689393  0.19169672  0.49440503     1.01710
Cr129      Cr  0.81035186  0.18253148  0.44537161     1.93740
Cr130      Cr  0.74420617  0.24735376  0.49634493     1.93210
Cr131      Cr  0.81238116  0.18792836  0.55090515     1.39100
O132        O  0.78911636  0.20583549  0.49746564    -1.23960
O133        O  0.12113788  0.17271163  0.47342186    -0.86210
O134        O  0.16367723  0.25006231  0.43143699    -0.83250
C135        C  0.19319337  0.28205050  0.42590167     0.97250
O136        O  0.23209198  0.27786206  0.44474781    -0.83290
O137        O  0.21060952  0.29393762  0.53552114    -0.85930
C138        C  0.19667932  0.28731738  0.57611488     1.01780
O139        O  0.19087249  0.24655155  0.59073586    -0.78690
O140        O  0.11965220  0.20701306  0.53971018    -0.78880
C141        C  0.09833362  0.19056464  0.50551436     1.01730
O142        O  0.20307949  0.12167755  0.46558059    -0.86210
O143        O  0.24317255  0.19191636  0.41632378    -0.83270
C144        C  0.28479043  0.19637791  0.42840933     0.97270
O145        O  0.29442385  0.20736202  0.46940958    -0.83300
O146        O  0.27945073  0.22942661  0.56242541    -0.85900
C147        C  0.27891050  0.19139917  0.58348230     1.01750
O148        O  0.24533187  0.16417216  0.57808607    -0.78720
O149        O  0.17286439  0.12196817  0.53439440    -0.78870
C150        C  0.18950503  0.09981431  0.50069470     1.01710
Cr151      Cr  0.18436068  0.18590846  0.45089999     1.93740
Cr152      Cr  0.25065793  0.24860193  0.50331614     1.93210
Cr153      Cr  0.18365721  0.18652041  0.55655883     1.39100
O154        O  0.20651010  0.20660471  0.50370602    -1.23960
O155        O  0.17875298  0.52755555  0.88334070    -0.86210
O156        O  0.25364627  0.57173488  0.84323447    -0.83250
C157        C  0.28557254  0.57986256  0.81468377     0.97250
O158        O  0.28304669  0.56390908  0.77443832    -0.83290
O159        O  0.29824061  0.47069781  0.78784733    -0.85930
C160        C  0.29087760  0.42928989  0.79903240     1.01780
O161        O  0.24993739  0.41447758  0.80390680    -0.78690
O162        O  0.20939671  0.45841921  0.87803519    -0.78880
C163        C  0.19523842  0.49186341  0.90203154     1.01730
O164        O  0.12602910  0.54280750  0.80181428    -0.86210
O165        O  0.19597707  0.59345862  0.76500763    -0.83270
C166        C  0.19695734  0.58290571  0.72288499     0.97270
O167        O  0.21124280  0.54336001  0.71106829    -0.83300
O168        O  0.23379219  0.45016311  0.71835668    -0.85900
C169        C  0.19585601  0.42912316  0.71640785     1.01750
O170        O  0.16806045  0.43248147  0.74972380    -0.78720
O171        O  0.12499487  0.47067024  0.82553802    -0.78870
C172        C  0.10410247  0.50676506  0.81221252     1.01710
Cr173      Cr  0.19037348  0.55468362  0.82142986     1.93740
Cr174      Cr  0.25304219  0.50676557  0.75146749     1.93210
Cr175      Cr  0.18970380  0.44841166  0.81308137     1.39100
O176        O  0.21088844  0.50313837  0.79544452    -1.23960
O177        O  0.12001967  0.82640705  0.52470725    -0.86210
O178        O  0.15652679  0.75242700  0.57204178    -0.83250
C179        C  0.18237658  0.71839757  0.58035185     0.97250
O180        O  0.22088548  0.71436753  0.56029065    -0.83290
O181        O  0.20229700  0.70216330  0.46685555    -0.85930
C182        C  0.19471817  0.71110536  0.42497608     1.01780
O183        O  0.19707780  0.75262929  0.41177739    -0.78690
O184        O  0.12490976  0.79696330  0.45505504    -0.78880
C185        C  0.10098941  0.81099571  0.48856949     1.01730
O186        O  0.20615619  0.87535054  0.53837702    -0.86210
O187        O  0.24090535  0.80379753  0.58860602    -0.83270
C188        C  0.28256435  0.79868297  0.57584065     0.97270
O189        O  0.29092280  0.77993899  0.53737898    -0.83300
O190        O  0.27927352  0.75881662  0.44489104    -0.85900
C191        C  0.28490601  0.79698568  0.42486368     1.01750
O192        O  0.25625382  0.82909113  0.43215202    -0.78720
O193        O  0.18092524  0.87782228  0.46750567    -0.78870
C194        C  0.19486028  0.89818548  0.50335344     1.01710
Cr195      Cr  0.18264891  0.81261957  0.55172347     1.93740
Cr196      Cr  0.24519000  0.74246754  0.50240585     1.93210
Cr197      Cr  0.19088802  0.81254411  0.44600893     1.39100
O198        O  0.20596340  0.78929494  0.50026536    -1.23960
O199        O  0.80251222  0.87828211  0.53950698    -0.86210
O200        O  0.76094321  0.81199542  0.58919548    -0.83250
C201        C  0.71910169  0.81620163  0.57715374     0.97250
O202        O  0.70688654  0.80055798  0.53822590    -0.83290
O203        O  0.71469785  0.77227811  0.44557614    -0.85930
C204        C  0.71588263  0.80899263  0.42246640     1.01780
O205        O  0.74884424  0.83672157  0.42815853    -0.78690
O206        O  0.82449278  0.87945129  0.46711475    -0.78880
C207        C  0.81260389  0.90028123  0.50363881     1.01730
O208        O  0.88267330  0.82209621  0.52592404    -0.86210
O209        O  0.83738354  0.74966717  0.57075650    -0.83270
C210        C  0.80600851  0.72114748  0.58092803     0.97270
O211        O  0.76661129  0.72468661  0.56251551    -0.83300
O212        O  0.78292893  0.70706850  0.47037986    -0.85900
C213        C  0.79616343  0.71337924  0.42934048     1.01750
O214        O  0.80160826  0.75395785  0.41388297    -0.78720
O215        O  0.87644685  0.79453315  0.45601626    -0.78870
C216        C  0.90104904  0.80771606  0.48919008     1.01710
Cr217      Cr  0.81906463  0.81366049  0.55195806     1.93740
Cr218      Cr  0.74639672  0.75451596  0.50400217     1.93210
Cr219      Cr  0.81148573  0.81460471  0.44584956     1.39100
O220        O  0.79268218  0.79431537  0.50038172    -1.23960
O221        O  0.46190956  0.87553669  0.79345266    -0.86210
O222        O  0.41559951  0.80075420  0.75527130    -0.83250
C223        C  0.42828203  0.79949078  0.71372695     0.97250
O224        O  0.47004127  0.78991398  0.70467544    -0.83290
O225        O  0.56483694  0.77691038  0.71643663    -0.85930
C226        C  0.58347114  0.81651255  0.71886859     1.01780
O227        O  0.57594773  0.84223907  0.75308060    -0.78690
O228        O  0.52964107  0.87914674  0.82746787    -0.78880
C229        C  0.49488184  0.89885506  0.80973514     1.01730
O230        O  0.47416433  0.82480218  0.87728505    -0.86210
O231        O  0.43614665  0.74774834  0.83492020    -0.83270
C232        C  0.42960987  0.71593317  0.80603884     0.97270
O233        O  0.45074044  0.71686316  0.76786372    -0.83300
O234        O  0.54481250  0.70796689  0.78729179    -0.85900
C235        C  0.58336805  0.71855902  0.80498870     1.01750
O236        O  0.59545800  0.76035706  0.80490706    -0.78720
O237        O  0.54263421  0.79309944  0.87589960    -0.78870
C238        C  0.50841214  0.80778034  0.89840353     1.01710
Cr239      Cr  0.45120033  0.81096618  0.81351880     1.93740
Cr240      Cr  0.50776123  0.75099671  0.74734169     1.93210
Cr241      Cr  0.55683919  0.81691846  0.81361832     1.39100
O242        O  0.50528808  0.79316988  0.79113507    -1.23960
O243        O  0.88303691  0.52892212  0.82443978    -0.86210
O244        O  0.83767150  0.57321165  0.75316297    -0.83250
C245        C  0.80720344  0.58108201  0.72306028     0.97250
O246        O  0.76869042  0.56052128  0.72473701    -0.83290
O247        O  0.78378908  0.46737637  0.70721486    -0.85930
C248        C  0.79876479  0.42681985  0.71390141     1.01780
O249        O  0.80780303  0.41284399  0.75426364    -0.78690
O250        O  0.88181857  0.45941101  0.79521058    -0.78880
C251        C  0.90421854  0.49390774  0.80978675     1.01730
O252        O  0.80309470  0.53691690  0.88062867    -0.86210
O253        O  0.76068109  0.58828497  0.81398051    -0.83270
C254        C  0.71895261  0.57591292  0.81600741     0.97270
O255        O  0.70807925  0.53666465  0.80032313    -0.83300
O256        O  0.71794130  0.44460793  0.77624325    -0.85900
C257        C  0.72014937  0.42115366  0.81262130     1.01750
O258        O  0.75506378  0.42523003  0.83813786    -0.78720
O259        O  0.82921137  0.46626404  0.87901375    -0.78870
C260        C  0.81468960  0.50058924  0.90162963     1.01710
Cr261      Cr  0.81924398  0.55220240  0.81612865     1.93740
Cr262      Cr  0.74864619  0.50221940  0.75552205     1.93210
Cr263      Cr  0.81684563  0.44559302  0.81471398     1.39100
O264        O  0.79535604  0.49979911  0.79513493    -1.23960
C265        C  0.60220528  0.63587719  0.82942811    -0.02710
C266        C  0.61636492  0.68216123  0.82283487     0.06970
C267        C  0.66273789  0.69286704  0.83519215    -0.02820
C268        C  0.69554757  0.65707906  0.84081995    -0.02820
C269        C  0.68305032  0.61072336  0.83117078     0.07110
C270        C  0.63550648  0.60016350  0.83283164    -0.03020
Br271      Br  0.61636174  0.53886902  0.84914062    -0.01570
Br272      Br  0.53863716  0.62245730  0.84342727    -0.01640
Br273      Br  0.75675786  0.67246730  0.86327214    -0.01600
Br274      Br  0.68247372  0.75534401  0.84783288    -0.01580
C275        C  0.84539575  0.61705689  0.65275108    -0.02710
C276        C  0.81265593  0.61876508  0.68882936     0.06970
C277        C  0.78039218  0.65512028  0.68981487    -0.02820
C278        C  0.77997251  0.68879914  0.65555626    -0.02820
C279        C  0.81169579  0.68715506  0.61882882     0.07110
C280        C  0.84452470  0.65092892  0.61740965    -0.03020
Br281      Br  0.88431085  0.64464922  0.56475858    -0.01570
Br282      Br  0.88880872  0.56671182  0.64998201    -0.01640
Br283      Br  0.73353529  0.73614200  0.65937728    -0.01600
Br284      Br  0.73474272  0.65925112  0.73751745    -0.01580
C285        C  0.66389174  0.83843081  0.69376073    -0.02710
C286        C  0.61708692  0.83080448  0.68273203     0.06970
C287        C  0.60330768  0.83560485  0.63656777    -0.02820
C288        C  0.63685171  0.83783928  0.60124632    -0.02820
C289        C  0.68429742  0.83371658  0.61194070     0.07110
C290        C  0.69724734  0.84198867  0.65840760    -0.03020
Br291      Br  0.75959542  0.85982683  0.67472909    -0.01570
Br292      Br  0.68291860  0.84191188  0.75714493    -0.01640
Br293      Br  0.61844740  0.85556265  0.54038244    -0.01600
Br294      Br  0.53890025  0.84372871  0.62257673    -0.01580
C295        C  0.97750342  0.76689371  0.48099562    -0.02710
C296        C  0.95212945  0.80833275  0.48495695     0.06970
C297        C  0.97588417  0.85079237  0.48673466    -0.02820
C298        C  0.02457312  0.85168832  0.48718572    -0.02820
C299        C  0.04992899  0.81014385  0.48543027     0.07110
C300        C  0.02630431  0.76777263  0.48123403    -0.03020
Br301      Br  0.06080452  0.71071574  0.47802284    -0.01570
Br302      Br  0.94554069  0.70880024  0.47702128    -0.01640
Br303      Br  0.05657782  0.91004997  0.48812777    -0.01600
Br304      Br  0.94176639  0.90804892  0.48606802    -0.01580
C305        C  0.40135468  0.79287395  0.63041864    -0.02710
C306        C  0.39280623  0.80689087  0.67641214     0.06970
C307        C  0.34906642  0.82772703  0.68632615    -0.02820
C308        C  0.31370506  0.82892715  0.65262395    -0.02820
C309        C  0.32164738  0.81047780  0.60816403     0.07110
C310        C  0.36771293  0.79984755  0.59624469    -0.03020
Br311      Br  0.38812523  0.80548174  0.53351981    -0.01570
Br312      Br  0.45553961  0.75811904  0.61260239    -0.01640
Br313      Br  0.25695153  0.86179711  0.66641128    -0.01600
Br314      Br  0.33555862  0.85517443  0.74571025    -0.01580
C315        C  0.03084456  0.48471123  0.77290789    -0.02710
C316        C  0.05315617  0.50644677  0.80987929     0.06970
C317        C  0.02680959  0.52526554  0.84589970    -0.02820
C318        C  0.97871314  0.51792454  0.84756906    -0.02820
C319        C  0.95584024  0.49500155  0.81087413     0.07110
C320        C  0.98254057  0.47841182  0.77358650    -0.03020
Br321      Br  0.95392718  0.44815842  0.72243984    -0.01570
Br322      Br  0.06616637  0.46852002  0.71895331    -0.01640
Br323      Br  0.94558391  0.53675689  0.90234355    -0.01600
Br324      Br  0.05620581  0.56430577  0.89096920    -0.01580
C325        C  0.40230095  0.63347408  0.79900909    -0.02710
C326        C  0.39477577  0.67903263  0.81506433     0.06970
C327        C  0.35203450  0.68969803  0.83686541    -0.02820
C328        C  0.31785114  0.65537620  0.84263612    -0.02820
C329        C  0.32520852  0.61061982  0.82508258     0.07110
C330        C  0.36882303  0.59921283  0.80641805    -0.03020
Br331      Br  0.38316744  0.53588653  0.79092277    -0.01570
Br332      Br  0.45531543  0.61748004  0.76160190    -0.01640
Br333      Br  0.25986511  0.67086180  0.87201267    -0.01600
Br334      Br  0.33553882  0.75285222  0.85073900    -0.01580
C335        C  0.16799576  0.60547913  0.64347231    -0.02710
C336        C  0.18400182  0.61852691  0.68774464     0.06970
C337        C  0.18806712  0.66651859  0.69783206    -0.02820
C338        C  0.18011076  0.69961619  0.66332444    -0.02820
C339        C  0.17163237  0.68576393  0.61794182     0.07110
C340        C  0.16285782  0.63903798  0.60860021    -0.03020
Br341      Br  0.14145561  0.62197852  0.54836586    -0.01570
Br342      Br  0.15117196  0.54240705  0.63009893    -0.01640
Br343      Br  0.18193913  0.76454813  0.67780738    -0.01600
Br344      Br  0.20841082  0.68930937  0.75699379    -0.01580
C345        C  0.16531737  0.02220192  0.53497952    -0.02710
C346        C  0.19206609  0.04784385  0.50247387     0.06970
C347        C  0.22199653  0.02297171  0.47235361    -0.02820
C348        C  0.22308011  0.97426555  0.47318579    -0.02820
C349        C  0.19588621  0.94942071  0.50472883     0.07110
C350        C  0.16853967  0.97357659  0.53680638    -0.03020
Br351      Br  0.13467865  0.93968663  0.58332818    -0.01570
Br352      Br  0.12164384  0.05139886  0.57651538    -0.01640
Br353      Br  0.26469919  0.94128006  0.43302363    -0.01600
Br354      Br  0.26400291  0.05390375  0.43055437    -0.01580
C355        C  0.22241856  0.36413550  0.60691225    -0.02710
C356        C  0.19075522  0.32718968  0.60805900     0.06970
C357        C  0.15546317  0.32760292  0.64177597    -0.02820
C358        C  0.15553099  0.36097169  0.67727050    -0.02820
C359        C  0.18765402  0.39795564  0.67602127     0.07110
C360        C  0.21736890  0.40147737  0.63721078    -0.03020
Br361      Br  0.25025329  0.45786030  0.62253789    -0.01570
Br362      Br  0.27783415  0.36126817  0.56977142    -0.01640
Br363      Br  0.11244503  0.35323317  0.72755897    -0.01600
Br364      Br  0.10630190  0.28300769  0.63930665    -0.01580
C365        C  0.83539335  0.97598296  0.53883345    -0.02710
C366        C  0.81080340  0.95126879  0.50482550     0.06970
C367        C  0.78283519  0.97545250  0.47323601    -0.02820
C368        C  0.78046845  0.02386273  0.47475747    -0.02820
C369        C  0.80683066  0.04864813  0.50712182     0.07110
C370        C  0.83412563  0.02459732  0.53933594    -0.03020
Br371      Br  0.87178523  0.05831925  0.58256915    -0.01570
Br372      Br  0.87173529  0.94367652  0.58437402    -0.01640
Br373      Br  0.73877962  0.05574345  0.43395489    -0.01600
Br374      Br  0.74502302  0.94264859  0.42956482    -0.01580
C375        C  0.97095986  0.20049190  0.53878503    -0.02710
C376        C  0.94828103  0.19401084  0.49607778     0.06970
C377        C  0.97509900  0.18521178  0.45645726    -0.02820
C378        C  0.02381927  0.18545542  0.45899915    -0.02820
C379        C  0.04659915  0.19086126  0.50223307     0.07110
C380        C  0.01914578  0.19507842  0.54224401    -0.03020
Br381      Br  0.04519732  0.18558220  0.60267990    -0.01570
Br382      Br  0.93726960  0.21878735  0.59347452    -0.01640
Br383      Br  0.05727633  0.17624599  0.40189389    -0.01600
Br384      Br  0.94572266  0.16905499  0.39875410    -0.01580
C385        C  0.76424323  0.32441573  0.64096479    -0.02710
C386        C  0.80234071  0.31897863  0.61080450     0.06970
C387        C  0.83786562  0.35229275  0.61159823    -0.02820
C388        C  0.83510762  0.39014317  0.64249930    -0.02820
C389        C  0.79946122  0.39236993  0.67577943     0.07110
C390        C  0.76386020  0.35943526  0.67403201    -0.03020
Br391      Br  0.71161516  0.36324000  0.71462542    -0.01570
Br392      Br  0.70998615  0.28588430  0.63689809    -0.01640
Br393      Br  0.87658568  0.44106287  0.63541092    -0.01600
Br394      Br  0.88819059  0.34795455  0.56823677    -0.01580
C395        C  0.50182037  0.97431793  0.76903841    -0.02710
C396        C  0.49289610  0.94966235  0.80976988     0.06970
C397        C  0.48569417  0.97358140  0.85134962    -0.02820
C398        C  0.48756325  0.02214814  0.85227347    -0.02820
C399        C  0.49691613  0.04700998  0.81150899     0.07110
C400        C  0.50386623  0.02287073  0.76985846    -0.03020
Br401      Br  0.51511924  0.05613717  0.71351422    -0.01570
Br402      Br  0.51313028  0.94127033  0.71250155    -0.01640
Br403      Br  0.48016122  0.05414742  0.91011680    -0.01600
Br404      Br  0.47348985  0.93955796  0.90716537    -0.01580
C405        C  0.37582809  0.33895421  0.84310730    -0.02710
C406        C  0.39933222  0.32738203  0.80218559     0.06970
C407        C  0.38916699  0.35144141  0.76125418    -0.02820
C408        C  0.35491925  0.38595091  0.76096444    -0.02820
C409        C  0.33010815  0.39646093  0.80145445     0.07110
C410        C  0.34094356  0.37314041  0.84266383    -0.03020
Br411      Br  0.30813696  0.38807042  0.89842130    -0.01570
Br412      Br  0.39228616  0.30860189  0.89980071    -0.01640
Br413      Br  0.33967462  0.41608451  0.70377849    -0.01600
Br414      Br  0.41942839  0.33479859  0.70431335    -0.01580
C415        C  0.34455392  0.16247618  0.69366519    -0.02710
C416        C  0.38819600  0.18270996  0.68395884     0.06970
C417        C  0.39680990  0.19973442  0.63904347    -0.02820
C418        C  0.36229230  0.19783848  0.60519308    -0.02820
C419        C  0.31749799  0.18151566  0.61597779     0.07110
C420        C  0.30926033  0.16237086  0.65998973    -0.03020
Br421      Br  0.24848041  0.13989803  0.67638185    -0.01570
Br422      Br  0.33020357  0.13932412  0.75444944    -0.01640
Br423      Br  0.37733697  0.21855159  0.54361521    -0.01600
Br424      Br  0.45504302  0.22844548  0.62270404    -0.01580
C425        C  0.65986936  0.30669161  0.84117877    -0.02710
C426        C  0.61547876  0.31406614  0.82204267     0.06970
C427        C  0.60361634  0.35896138  0.80733916    -0.02820
C428        C  0.63717568  0.39397833  0.80503734    -0.02820
C429        C  0.68264216  0.38643201  0.82214512     0.07110
C430        C  0.69296415  0.34277753  0.84203224    -0.03020
Br431      Br  0.75413042  0.32927321  0.86543705    -0.01570
Br432      Br  0.67749569  0.24633697  0.86297664    -0.01640
Br433      Br  0.62002629  0.45018629  0.77332850    -0.01600
Br434      Br  0.54052127  0.37349667  0.79058917    -0.01580
C435        C  0.66077315  0.18088424  0.69073149    -0.02710
C436        C  0.61282729  0.17823972  0.68069607     0.06970
C437        C  0.59965428  0.16559072  0.63548201    -0.02820
C438        C  0.63258564  0.16574111  0.59939969    -0.02820
C439        C  0.67922209  0.17602090  0.60875966     0.07110
C440        C  0.69353473  0.17519182  0.65559478    -0.03020
Br441      Br  0.75751742  0.16501539  0.67412966    -0.01570
Br442      Br  0.68436948  0.19630016  0.75117297    -0.01640
Br443      Br  0.61557053  0.14376631  0.53943240    -0.01600
Br444      Br  0.53822675  0.14329526  0.62339196    -0.01580
C445        C  0.53934558  0.19428657  0.97603216    -0.02710
C446        C  0.49664581  0.19223928  0.95232548     0.06970
C447        C  0.45515902  0.18934813  0.97796386    -0.02820
C448        C  0.45638887  0.18992293  0.02640840    -0.02820
C449        C  0.49934086  0.18943974  0.05002129     0.07110
C450        C  0.54084719  0.19082216  0.02420139    -0.03020
Br451      Br  0.60085054  0.18484004  0.05337301    -0.01570
Br452      Br  0.59684031  0.20381308  0.94357378    -0.01640
Br453      Br  0.39820098  0.19334194  0.05923107    -0.01600
Br454      Br  0.39615927  0.18117985  0.94763597    -0.01580
C455        C  0.34754349  0.22683392  0.31875072    -0.02710
C456        C  0.38896018  0.20190424  0.32240888     0.06970
C457        C  0.39664202  0.17381505  0.36136115    -0.02820
C458        C  0.36317855  0.17208835  0.39696031    -0.02820
C459        C  0.32063147  0.19570090  0.39184218     0.07110
C460        C  0.31222235  0.22073074  0.35081707    -0.03020
Br461      Br  0.25243501  0.24630588  0.33525455    -0.01570
Br462      Br  0.34044317  0.27387633  0.27260938    -0.01640
Br463      Br  0.37389963  0.13410802  0.45030113    -0.01600
Br464      Br  0.45159099  0.13624931  0.36483445    -0.01580
C465        C  0.65177212  0.16584532  0.30687648    -0.02710
C466        C  0.60791372  0.18557510  0.31652538     0.06970
C467        C  0.59791669  0.20059631  0.36151992    -0.02820
C468        C  0.63206346  0.19873424  0.39573814    -0.02820
C469        C  0.67646752  0.17988837  0.38613036     0.07110
C470        C  0.68545543  0.16192214  0.34181621    -0.03020
Br471      Br  0.74568672  0.13709147  0.32660171    -0.01570
Br472      Br  0.66895583  0.15036824  0.24447190    -0.01640
Br473      Br  0.61751179  0.22588569  0.45483578    -0.01600
Br474      Br  0.53768101  0.22574697  0.37668596    -0.01580
C475        C  0.53322029  0.97591267  0.20749141    -0.02710
C476        C  0.49379862  0.95155436  0.19224504     0.06970
C477        C  0.45387455  0.97632547  0.17874077    -0.02820
C478        C  0.45349660  0.02492060  0.18042154    -0.02820
C479        C  0.49295061  0.04909181  0.19574214     0.07110
C480        C  0.53263221  0.02435370  0.20944785    -0.03020
Br481      Br  0.58607505  0.05645065  0.23279972    -0.01570
Br482      Br  0.58827976  0.94370431  0.22720553    -0.01640
Br483      Br  0.39988885  0.05820179  0.15835661    -0.01600
Br484      Br  0.40068727  0.94427778  0.15433383    -0.01580
C485        C  0.54947651  0.81818195  0.97427538    -0.02710
C486        C  0.50880453  0.80701135  0.94962883     0.06970
C487        C  0.46794741  0.79656698  0.97432630    -0.02820
C488        C  0.46751043  0.79756379  0.02270261    -0.02820
C489        C  0.50799937  0.80902176  0.04735288     0.07110
C490        C  0.54901508  0.81934743  0.02278066    -0.03020
Br491      Br  0.60429058  0.83857294  0.05489830    -0.01570
Br492      Br  0.60571542  0.83494151  0.94221602    -0.01640
Br493      Br  0.41107076  0.78112466  0.05455183    -0.01600
Br494      Br  0.41223885  0.77851819  0.94268179    -0.01580
C495        C  0.65912357  0.83203861  0.30614779    -0.02710
C496        C  0.61241265  0.82177240  0.31593845     0.06970
C497        C  0.59932201  0.81199974  0.36148196    -0.02820
C498        C  0.63297570  0.80636357  0.39578908    -0.02820
C499        C  0.67985306  0.81718957  0.38670925     0.07110
C500        C  0.69252948  0.83107566  0.34163876    -0.03020
Br501      Br  0.75662971  0.84206930  0.32619574    -0.01570
Br502      Br  0.67843810  0.84253249  0.24339017    -0.01640
Br503      Br  0.61398657  0.77871222  0.45308675    -0.01600
Br504      Br  0.53467316  0.80696453  0.37719913    -0.01580
C505        C  0.39549614  0.77172189  0.35747587    -0.02710
C506        C  0.39184993  0.80291505  0.32024734     0.06970
C507        C  0.35340198  0.83303628  0.31799737    -0.02820
C508        C  0.31799329  0.83048249  0.35129774    -0.02820
C509        C  0.32296998  0.80141332  0.39028360     0.07110
C510        C  0.36258525  0.77232421  0.39312043    -0.03020
Br511      Br  0.37253334  0.73047609  0.44423379    -0.01570
Br512      Br  0.44218226  0.72342499  0.35781720    -0.01640
Br513      Br  0.26026389  0.86176828  0.33832136    -0.01600
Br514      Br  0.34848460  0.87818648  0.26916261    -0.01580
C515        C  0.83649688  0.46338850  0.97814591    -0.02710
C516        C  0.81168184  0.49786099  0.95323601     0.06970
C517        C  0.78239486  0.52835727  0.97836612    -0.02820
C518        C  0.78158035  0.52707281  0.02688539    -0.02820
C519        C  0.80682079  0.49332991  0.05111026     0.07110
C520        C  0.83140472  0.45951943  0.02625277    -0.03020
Br521      Br  0.85705741  0.40657134  0.05776800    -0.01570
Br522      Br  0.88038175  0.42219113  0.94874916    -0.01640
Br523      Br  0.74214564  0.56913511  0.06017281    -0.01600
Br524      Br  0.74020556  0.57041710  0.94789842    -0.01580
C525        C  0.83243414  0.33996018  0.30775507    -0.02710
C526        C  0.82556610  0.38651088  0.31899286     0.06970
C527        C  0.81994241  0.39946331  0.36531301    -0.02820
C528        C  0.81546688  0.36566154  0.39988879    -0.02820
C529        C  0.81559928  0.31810181  0.38801431     0.07110
C530        C  0.82807965  0.30572354  0.34185050    -0.03020
Br531      Br  0.83917768  0.24261478  0.32209286    -0.01570
Br532      Br  0.84378020  0.32274949  0.24434363    -0.01640
Br533      Br  0.81026447  0.38622482  0.46297898    -0.01600
Br534      Br  0.81826385  0.46411897  0.38119646    -0.01580
C535        C  0.63427449  0.40266051  0.18978635    -0.02710
C536        C  0.68095510  0.39031558  0.18353546     0.06970
C537        C  0.69073511  0.34453228  0.16892942    -0.02820
C538        C  0.65525342  0.31101309  0.16805044    -0.02820
C539        C  0.61021071  0.32186655  0.18491267     0.07110
C540        C  0.60054828  0.36854487  0.19634364    -0.03020
Br541      Br  0.54500710  0.38760873  0.22812760    -0.01570
Br542      Br  0.61411152  0.46530817  0.18051579    -0.01640
Br543      Br  0.67042513  0.25043881  0.14387686    -0.01600
Br544      Br  0.75150981  0.32711286  0.14638867    -0.01580
C545        C  0.68781157  0.65076479  0.16741735    -0.02710
C546        C  0.68180644  0.61034361  0.19419755     0.06970
C547        C  0.64086855  0.60564791  0.22102847    -0.02820
C548        C  0.60802695  0.64131993  0.22240227    -0.02820
C549        C  0.61256079  0.68000371  0.19315302     0.07110
C550        C  0.65226621  0.68402321  0.16493507    -0.03020
Br551      Br  0.65922460  0.73544488  0.12301631    -0.01570
Br552      Br  0.74675623  0.66528879  0.13935610    -0.01640
Br553      Br  0.56069366  0.63904884  0.26987474    -0.01600
Br554      Br  0.62868538  0.55173726  0.25875427    -0.01580
C555        C  0.76887224  0.63778807  0.39641087    -0.02710
C556        C  0.80206701  0.67360220  0.39736005     0.06970
C557        C  0.83782513  0.67387476  0.36400944    -0.02820
C558        C  0.83938946  0.63992792  0.32929829    -0.02820
C559        C  0.80613959  0.60427302  0.32821041     0.07110
C560        C  0.77099460  0.60330632  0.36224293    -0.03020
Br561      Br  0.72168839  0.55821254  0.35948098    -0.01570
Br562      Br  0.71694178  0.63804820  0.43856803    -0.01640
Br563      Br  0.88686056  0.64359396  0.28260042    -0.01600
Br564      Br  0.88541601  0.72065257  0.36529129    -0.01580
C565        C  0.02662390  0.51406048  0.23363113    -0.02710
C566        C  0.05058676  0.49221275  0.19752104     0.06970
C567        C  0.02588636  0.47236800  0.16120353    -0.02820
C568        C  0.97860487  0.48164630  0.15636906    -0.02820
C569        C  0.95365610  0.50257192  0.19269606     0.07110
C570        C  0.97788357  0.51668770  0.23253879    -0.03020
Br571      Br  0.94494439  0.53526767  0.28714411    -0.01570
Br572      Br  0.06048317  0.53760823  0.28560463    -0.01640
Br573      Br  0.95034479  0.46989328  0.09769129    -0.01600
Br574      Br  0.05564696  0.42832032  0.12112621    -0.01580
C575        C  0.23641220  0.49879088  0.97762643    -0.02710
C576        C  0.19557913  0.48984487  0.95271658     0.06970
C577        C  0.15311158  0.48713163  0.97615335    -0.02820
C578        C  0.15076410  0.49748193  0.02317441    -0.02820
C579        C  0.19155182  0.50258583  0.04894203     0.07110
C580        C  0.23466958  0.50308830  0.02600115    -0.03020
Br581      Br  0.29109088  0.50999928  0.06056632    -0.01570
Br582      Br  0.29410132  0.50692955  0.94532181    -0.01640
Br583      Br  0.09193145  0.51298312  0.04997737    -0.01600
Br584      Br  0.09846345  0.46642923  0.94456584    -0.01580
C585        C  0.30159148  0.33540221  0.16508601    -0.02710
C586        C  0.31471777  0.38229938  0.16663129     0.06970
C587        C  0.36136651  0.39403080  0.15941752    -0.02820
C588        C  0.39551372  0.35934376  0.15894207    -0.02820
C589        C  0.38299291  0.31286359  0.16484800     0.07110
C590        C  0.33576474  0.30067905  0.16234970    -0.03020
Br591      Br  0.31757258  0.23668532  0.15823291    -0.01570
Br592      Br  0.23737200  0.31830955  0.17118381    -0.01640
Br593      Br  0.45890422  0.37458202  0.14637005    -0.01600
Br594      Br  0.37793991  0.45715470  0.14804632    -0.01580
C595        C  0.22704540  0.38894233  0.35840239    -0.02710
C596        C  0.19628317  0.38829461  0.32083805     0.06970
C597        C  0.15882178  0.35681474  0.32164998    -0.02820
C598        C  0.15506376  0.32339294  0.35716773    -0.02820
C599        C  0.18717965  0.32286062  0.39397878     0.07110
C600        C  0.22015834  0.35930433  0.39602686    -0.03020
Br601      Br  0.25578793  0.37166324  0.45089992    -0.01570
Br602      Br  0.28257838  0.42643844  0.35707415    -0.01640
Br603      Br  0.10588799  0.27886439  0.35400519    -0.01600
Br604      Br  0.11173676  0.35980755  0.27466695    -0.01580
C605        C  0.36995665  0.60148686  0.19465965    -0.02710
C606        C  0.32288178  0.61037034  0.18344697     0.06970
C607        C  0.31132543  0.65525421  0.16645525    -0.02820
C608        C  0.34452985  0.69102676  0.16669947    -0.02820
C609        C  0.39099953  0.68127452  0.17743010     0.07110
C610        C  0.40381704  0.63554200  0.18736105    -0.03020
Br611      Br  0.46846504  0.61925992  0.18977715    -0.01570
Br612      Br  0.38960408  0.54647959  0.22676850    -0.01640
Br613      Br  0.32512470  0.75417293  0.15674318    -0.01600
Br614      Br  0.25054786  0.66999811  0.14263613    -0.01580
C615        C  0.19595656  0.59301305  0.36432334    -0.02710
C616        C  0.18661457  0.60580382  0.31864003     0.06970
C617        C  0.17396254  0.65170607  0.30885433    -0.02820
C618        C  0.17258652  0.68505802  0.34421158    -0.02820
C619        C  0.18727458  0.67361614  0.38975500     0.07110
C620        C  0.19858471  0.62666895  0.39927014    -0.03020
Br621      Br  0.22256879  0.60680390  0.45803080    -0.01570
Br622      Br  0.20392311  0.52849710  0.37914997    -0.01640
Br623      Br  0.15084250  0.74625263  0.32766012    -0.01600
Br624      Br  0.16198105  0.67013595  0.24596920    -0.01580
loop_ 
_geom_bond_atom_site_label_1 
_geom_bond_atom_site_label_2 
_geom_bond_distance 
_geom_bond_site_symmetry_2 
_ccdc_geom_bond_type 
O1          Cr19   2.007       .  S
O1            C9   1.265       .  A
O2          Cr19   1.980       .  S
O2            C3   1.262       .  A
C3            O4   1.269       .  A
C3          C616   1.485       .  S
O4          Cr20   2.015       .  S
O5          Cr20   1.982       .  S
O5            C6   1.260       .  A
C6            O7   1.265       .  A
C6          C596   1.495       .  S
O7          Cr21   2.016       .  S
O8          Cr21   1.976       .  S
O8            C9   1.256       .  A
C9          C566   1.468       .  S
O10         Cr19   1.984       .  S
O10          C18   1.262       .  A
O11         Cr19   2.007       .  S
O11          C12   1.262       .  A
C12          O13   1.262       .  A
C12         C606   1.509       .  S
O13         Cr20   1.995       .  S
O14         Cr20   2.017       .  S
O14          C15   1.269       .  A
C15          O16   1.258       .  A
C15         C586   1.480       .  S
O16         Cr21   1.976       .  S
O17         Cr21   2.016       .  S
O17          C18   1.269       .  A
C18         C579   1.480       .  S
Cr19         O22   1.769       .  S
Cr20         O22   1.760       .  S
Cr21         O22   1.775       .  S
O23         Cr41   1.989       .  S
O23          C31   1.262       .  A
O24         Cr41   1.992       .  S
O24          C25   1.262       .  A
C25          O26   1.259       .  A
C25         C526   1.474       .  S
O26         Cr42   1.986       .  S
O27         Cr42   1.976       .  S
O27          C28   1.261       .  A
C28          O29   1.270       .  A
C28         C559   1.489       .  S
O29         Cr43   2.022       .  S
O30         Cr43   1.992       .  S
O30          C31   1.263       .  A
C31         C569   1.484       .  S
O32         Cr41   1.981       .  S
O32          C40   1.261       .  A
O33         Cr41   1.997       .  S
O33          C34   1.262       .  A
C34          O35   1.266       .  A
C34         C536   1.503       .  S
O35         Cr42   1.995       .  S
O36         Cr42   1.978       .  S
O36          C37   1.254       .  A
C37          O38   1.261       .  A
C37         C546   1.489       .  S
O38         Cr43   1.995       .  S
O39         Cr43   2.019       .  S
O39          C40   1.269       .  A
C40         C519   1.488       .  S
Cr41         O44   1.767       .  S
Cr42         O44   1.763       .  S
Cr43         O44   1.771       .  S
O45         Cr63   2.014       .  S
O45          C53   1.267       .  A
O46         Cr63   1.992       .  S
O46          C47   1.263       .  A
C47          O48   1.264       .  A
C47         C609   1.485       .  S
O48         Cr64   2.003       .  S
O49         Cr64   1.971       .  S
O49          C50   1.257       .  A
C50          O51   1.263       .  A
C50         C549   1.482       .  S
O51         Cr65   2.005       .  S
O52         Cr65   1.977       .  S
O52          C53   1.260       .  A
C53         C489   1.488       .  S
O54         Cr63   1.977       .  S
O54          C62   1.261       .  A
O55         Cr63   2.012       .  S
O55          C56   1.266       .  A
C56          O57   1.258       .  A
C56         C506   1.486       .  S
O57         Cr64   1.972       .  S
O58         Cr64   2.005       .  S
O58          C59   1.265       .  A
C59          O60   1.261       .  A
C59         C496   1.483       .  S
O60         Cr65   1.987       .  S
O61         Cr65   2.008       .  S
O61          C62   1.266       .  A
C62         C476   1.481       .  S
Cr63         O66   1.767       .  S
Cr64         O66   1.752       .  S
Cr65         O66   1.769       .  S
O67         Cr85   1.975       .  S
O67          C75   1.262       .  A
O68         Cr85   2.005       .  S
O68          C69   1.260       .  A
C69          O70   1.257       .  A
C69         C539   1.502       .  S
O70         Cr86   1.985       .  S
O71         Cr86   2.021       .  S
O71          C72   1.271       .  A
C72          O73   1.257       .  A
C72         C589   1.484       .  S
O73         Cr87   1.974       .  S
O74         Cr87   2.013       .  S
O74          C75   1.267       .  A
C75         C449   1.490       .  S
O76         Cr85   2.011       .  S
O76          C84   1.265       .  A
O77         Cr85   1.972       .  S
O77          C78   1.262       .  A
C78          O79   1.273       .  A
C78         C466   1.484       .  S
O79         Cr86   2.021       .  S
O80         Cr86   1.982       .  S
O80          C81   1.257       .  A
C81          O82   1.266       .  A
C81         C456   1.477       .  S
O82         Cr87   2.003       .  S
O83         Cr87   1.974       .  S
O83          C84   1.257       .  A
C84         C479   1.478       .  S
Cr85         O88   1.760       .  S
Cr86         O88   1.760       .  S
Cr87         O88   1.768       .  S
O89        Cr107   1.977       .  S
O89          C97   1.260       .  A
O90        Cr107   1.988       .  S
O90          C91   1.262       .  A
C91          O92   1.262       .  A
C91         C436   1.497       .  S
O92        Cr108   1.992       .  S
O93        Cr108   1.999       .  S
O93          C94   1.263       .  A
C94          O95   1.262       .  A
C94         C416   1.494       .  S
O95        Cr109   1.989       .  S
O96        Cr109   2.011       .  S
O96          C97   1.266       .  A
C97         C399   1.480       .  S
O98        Cr107   1.999       .  S
O98         C106   1.262       .  A
O99        Cr107   2.004       .  S
O99         C100   1.265       .  A
C100        O101   1.267       .  A
C100        C426   1.498       .  S
O101       Cr108   2.008       .  S
O102       Cr108   1.978       .  S
O102        C103   1.259       .  A
C103        O104   1.264       .  A
C103        C406   1.478       .  S
O104       Cr109   2.009       .  S
O105       Cr109   1.985       .  S
O105        C106   1.261       .  A
C106        C446   1.489       .  S
Cr107       O110   1.767       .  S
Cr108       O110   1.768       .  S
Cr109       O110   1.772       .  S
O111       Cr129   1.997       .  S
O111        C119   1.263       .  A
O112       Cr129   2.005       .  S
O112        C113   1.264       .  A
C113        O114   1.253       .  A
C113        C469   1.488       .  S
O114       Cr130   1.968       .  S
O115       Cr130   2.035       .  S
O115        C116   1.273       .  A
C116        O117   1.252       .  A
C116        C439   1.504       .  S
O117       Cr131   1.952       .  S
O118       Cr131   1.983       .  S
O118        C119   1.261       .  A
C119        C369   1.476       .  S
O120       Cr129   1.996       .  S
O120        C128   1.262       .  A
O121       Cr129   1.976       .  S
O121        C122   1.257       .  A
C122        O123   1.268       .  A
C122        C529   1.505       .  S
O123       Cr130   2.003       .  S
O124       Cr130   1.970       .  S
O124        C125   1.257       .  A
C125        O126   1.268       .  A
C125        C386   1.487       .  S
O126       Cr131   2.014       .  S
O127       Cr131   1.978       .  S
O127        C128   1.255       .  A
C128        C376   1.488       .  S
Cr129       O132   1.767       .  S
Cr130       O132   1.768       .  S
Cr131       O132   1.771       .  S
O133       Cr151   1.978       .  S
O133        C141   1.253       .  A
O134       Cr151   2.031       .  S
O134        C135   1.271       .  A
C135        O136   1.257       .  A
C135        C599   1.513       .  S
O136       Cr152   1.977       .  S
O137       Cr152   1.983       .  S
O137        C138   1.261       .  A
C138        O139   1.266       .  A
C138        C356   1.492       .  S
O139       Cr153   2.015       .  S
O140       Cr153   2.003       .  S
O140        C141   1.264       .  A
C141        C379   1.499       .  S
O142       Cr151   1.983       .  S
O142        C150   1.264       .  A
O143       Cr151   1.982       .  S
O143        C144   1.261       .  A
C144        O145   1.266       .  A
C144        C459   1.484       .  S
O145       Cr152   1.998       .  S
O146       Cr152   1.989       .  S
O146        C147   1.260       .  A
C147        O148   1.262       .  A
C147        C419   1.490       .  S
O148       Cr153   1.997       .  S
O149       Cr153   2.003       .  S
O149        C150   1.265       .  A
C150        C346   1.508       .  S
Cr151       O154   1.770       .  S
Cr152       O154   1.765       .  S
Cr153       O154   1.771       .  S
O155       Cr173   1.993       .  S
O155        C163   1.261       .  A
O156       Cr173   2.000       .  S
O156        C157   1.263       .  A
C157        O158   1.261       .  A
C157        C329   1.484       .  S
O158       Cr174   1.987       .  S
O159       Cr174   1.979       .  S
O159        C160   1.261       .  A
C160        O161   1.267       .  A
C160        C409   1.480       .  S
O161       Cr175   2.015       .  S
O162       Cr175   1.995       .  S
O162        C163   1.261       .  A
C163        C576   1.475       .  S
O164       Cr173   1.977       .  S
O164        C172   1.259       .  A
O165       Cr173   1.995       .  S
O165        C166   1.263       .  A
C166        O167   1.264       .  A
C166        C336   1.499       .  S
O167       Cr174   1.990       .  S
O168       Cr174   1.983       .  S
O168        C169   1.257       .  A
C169        O170   1.261       .  A
C169        C359   1.501       .  S
O170       Cr175   2.001       .  S
O171       Cr175   2.010       .  S
O171        C172   1.267       .  A
C172        C316   1.474       .  S
Cr173       O176   1.774       .  S
Cr174       O176   1.768       .  S
Cr175       O176   1.776       .  S
O177       Cr195   2.014       .  S
O177        C185   1.269       .  A
O178       Cr195   1.991       .  S
O178        C179   1.259       .  A
C179        O180   1.261       .  A
C179        C339   1.478       .  S
O180       Cr196   1.997       .  S
O181       Cr196   1.995       .  S
O181        C182   1.264       .  A
C182        O183   1.264       .  A
C182        C619   1.509       .  S
O183       Cr197   2.009       .  S
O184       Cr197   1.978       .  S
O184        C185   1.261       .  A
C185        C299   1.479       .  S
O186       Cr195   1.979       .  S
O186        C194   1.257       .  A
O187       Cr195   2.014       .  S
O187        C188   1.268       .  A
C188        O189   1.266       .  A
C188        C309   1.510       .  S
O189       Cr196   1.993       .  S
O190       Cr196   1.997       .  S
O190        C191   1.260       .  A
C191        O192   1.262       .  A
C191        C509   1.495       .  S
O192       Cr197   1.991       .  S
O193       Cr197   2.012       .  S
O193        C194   1.265       .  A
C194        C349   1.485       .  S
Cr195       O198   1.774       .  S
Cr196       O198   1.767       .  S
Cr197       O198   1.770       .  S
O199       Cr217   1.965       .  S
O199        C207   1.256       .  A
O200       Cr217   1.998       .  S
O200        C201   1.265       .  A
C201        O202   1.270       .  A
C201        C289   1.513       .  S
O202       Cr218   2.016       .  S
O203       Cr218   1.998       .  S
O203        C204   1.258       .  A
C204        O205   1.259       .  A
C204        C499   1.491       .  S
O205       Cr219   1.988       .  S
O206       Cr219   2.014       .  S
O206        C207   1.268       .  A
C207        C366   1.478       .  S
O208       Cr217   2.003       .  S
O208        C216   1.263       .  A
O209       Cr217   2.003       .  S
O209        C210   1.263       .  A
C210        O211   1.263       .  A
C210        C279   1.487       .  S
O211       Cr218   1.996       .  S
O212       Cr218   1.988       .  S
O212        C213   1.266       .  A
C213        O214   1.268       .  A
C213        C556   1.490       .  S
O214       Cr219   2.009       .  S
O215       Cr219   1.987       .  S
O215        C216   1.259       .  A
C216        C296   1.482       .  S
Cr217       O220   1.775       .  S
Cr218       O220   1.771       .  S
Cr219       O220   1.776       .  S
O221       Cr239   1.984       .  S
O221        C229   1.262       .  A
O222       Cr239   2.006       .  S
O222        C223   1.263       .  A
C223        O224   1.265       .  A
C223        C306   1.509       .  S
O224       Cr240   1.999       .  S
O225       Cr240   2.023       .  S
O225        C226   1.270       .  A
C226        O227   1.262       .  A
C226        C286   1.489       .  S
O227       Cr241   1.985       .  S
O228       Cr241   2.006       .  S
O228        C229   1.265       .  A
C229        C396   1.473       .  S
O230       Cr239   2.011       .  S
O230        C238   1.265       .  A
O231       Cr239   1.983       .  S
O231        C232   1.262       .  A
C232        O233   1.267       .  A
C232        C326   1.493       .  S
O233       Cr240   2.013       .  S
O234       Cr240   2.012       .  S
O234        C235   1.267       .  A
C235        O236   1.261       .  A
C235        C266   1.512       .  S
O236       Cr241   1.997       .  S
O237       Cr241   1.981       .  S
O237        C238   1.259       .  A
C238        C486   1.490       .  S
Cr239       O242   1.768       .  S
Cr240       O242   1.766       .  S
Cr241       O242   1.769       .  S
O243       Cr261   1.977       .  S
O243        C251   1.258       .  A
O244       Cr261   2.001       .  S
O244        C245   1.263       .  A
C245        O246   1.264       .  A
C245        C276   1.486       .  S
O246       Cr262   1.998       .  S
O247       Cr262   2.004       .  S
O247        C248   1.266       .  A
C248        O249   1.269       .  A
C248        C389   1.492       .  S
O249       Cr263   2.015       .  S
O250       Cr263   2.002       .  S
O250        C251   1.265       .  A
C251        C319   1.493       .  S
O252       Cr261   1.982       .  S
O252        C260   1.262       .  A
O253       Cr261   1.989       .  S
O253        C254   1.260       .  A
C254        O255   1.266       .  A
C254        C269   1.511       .  S
O255       Cr262   2.015       .  S
O256       Cr262   1.985       .  S
O256        C257   1.259       .  A
C257        O258   1.259       .  A
C257        C429   1.506       .  S
O258       Cr263   2.000       .  S
O259       Cr263   1.997       .  S
O259        C260   1.263       .  A
C260        C516   1.505       .  S
Cr261       O264   1.778       .  S
Cr262       O264   1.777       .  S
Cr263       O264   1.781       .  S
C265        C266   1.416       .  A
C265        C270   1.415       .  A
C265       Br272   1.922       .  S
C266        C267   1.423       .  A
C267        C268   1.413       .  A
C267       Br274   1.934       .  S
C268        C269   1.419       .  A
C268       Br273   1.940       .  S
C269        C270   1.409       .  A
C270       Br271   1.920       .  S
C275        C276   1.413       .  A
C275        C280   1.421       .  A
C275       Br282   1.924       .  S
C276        C277   1.405       .  A
C277        C278   1.394       .  A
C277       Br284   1.917       .  S
C278        C279   1.407       .  A
C278       Br283   1.920       .  S
C279        C280   1.414       .  A
C280       Br281   1.922       .  S
C285        C286   1.409       .  A
C285        C290   1.412       .  A
C285       Br292   1.927       .  S
C286        C287   1.408       .  A
C287        C288   1.413       .  A
C287       Br294   1.920       .  S
C288        C289   1.411       .  A
C288       Br293   1.918       .  S
C289        C290   1.423       .  A
C290       Br291   1.936       .  S
C295        C296   1.410       .  A
C295        C300   1.411   1_655  A
C295       Br302   1.925       .  S
C296        C297   1.411       .  A
C297        C298   1.408   1_655  A
C297       Br304   1.928       .  S
C298        C299   1.409       .  A
C298       Br303   1.929       .  S
C299        C300   1.411       .  A
C300       Br301   1.931       .  S
C305        C306   1.419       .  A
C305        C310   1.406       .  A
C305       Br312   1.930       .  S
C306        C307   1.429       .  A
C307        C308   1.417       .  A
C307       Br314   1.940       .  S
C308        C309   1.417       .  A
C308       Br313   1.936       .  S
C309        C310   1.409       .  A
C310       Br311   1.923       .  S
C315        C316   1.404       .  A
C315        C320   1.409   1_455  A
C315       Br322   1.928       .  S
C316        C317   1.404       .  A
C317        C318   1.408   1_455  A
C317       Br324   1.931       .  S
C318        C319   1.422       .  A
C318       Br323   1.935       .  S
C319        C320   1.414       .  A
C320       Br321   1.916       .  S
C325        C326   1.416       .  A
C325        C330   1.404       .  A
C325       Br332   1.933       .  S
C326        C327   1.421       .  A
C327        C328   1.413       .  A
C327       Br334   1.932       .  S
C328        C329   1.409       .  A
C328       Br333   1.932       .  S
C329        C330   1.410       .  A
C330       Br331   1.933       .  S
C335        C336   1.420       .  A
C335        C340   1.412       .  A
C335       Br342   1.931       .  S
C336        C337   1.426       .  A
C337        C338   1.407       .  A
C337       Br344   1.936       .  S
C338        C339   1.402       .  A
C338       Br343   1.928       .  S
C339        C340   1.404       .  A
C340       Br341   1.924       .  S
C345        C346   1.429       .  A
C345        C350   1.412   1_545  A
C345       Br352   1.939       .  S
C346        C347   1.425       .  A
C347        C348   1.411   1_545  A
C347       Br354   1.938       .  S
C348        C349   1.406       .  A
C348       Br353   1.928       .  S
C349        C350   1.407       .  A
C350       Br351   1.937       .  S
C355        C356   1.410       .  A
C355        C360   1.403       .  A
C355       Br362   1.932       .  S
C356        C357   1.414       .  A
C357        C358   1.414       .  A
C357       Br364   1.924       .  S
C358        C359   1.420       .  A
C358       Br363   1.933       .  S
C359        C360   1.421       .  A
C360       Br361   1.939       .  S
C365        C366   1.414       .  A
C365        C370   1.409   1_565  A
C365       Br372   1.932       .  S
C366        C367   1.410       .  A
C367        C368   1.405   1_565  A
C367       Br374   1.929       .  S
C368        C369   1.410       .  A
C368       Br373   1.927       .  S
C369        C370   1.409       .  A
C370       Br371   1.931       .  S
C375        C376   1.418       .  A
C375        C380   1.405   1_655  A
C375       Br382   1.937       .  S
C376        C377   1.411       .  A
C377        C378   1.410   1_655  A
C377       Br384   1.940       .  S
C378        C379   1.429       .  A
C378       Br383   1.939       .  S
C379        C380   1.413       .  A
C380       Br381   1.932       .  S
C385        C386   1.415       .  A
C385        C390   1.398       .  A
C385       Br392   1.931       .  S
C386        C387   1.411       .  A
C387        C388   1.420       .  A
C387       Br394   1.928       .  S
C388        C389   1.414       .  A
C388       Br393   1.914       .  S
C389        C390   1.406       .  A
C390       Br391   1.918       .  S
C395        C396   1.407       .  A
C395        C400   1.408   1_565  A
C395       Br402   1.930       .  S
C396        C397   1.409       .  A
C397        C398   1.408   1_565  A
C397       Br404   1.931       .  S
C398        C399   1.413       .  A
C398       Br403   1.932       .  S
C399        C400   1.413       .  A
C400       Br401   1.928       .  S
C405        C406   1.410       .  A
C405        C410   1.412       .  A
C405       Br412   1.928       .  S
C406        C407   1.410       .  A
C407        C408   1.405       .  A
C407       Br414   1.932       .  S
C408        C409   1.411       .  A
C408       Br413   1.929       .  S
C409        C410   1.411       .  A
C410       Br411   1.926       .  S
C415        C416   1.420       .  A
C415        C420   1.415       .  A
C415       Br422   1.935       .  S
C416        C417   1.418       .  A
C417        C418   1.404       .  A
C417       Br424   1.937       .  S
C418        C419   1.414       .  A
C418       Br423   1.937       .  S
C419        C420   1.415       .  A
C420       Br421   1.934       .  S
C425        C426   1.415       .  A
C425        C430   1.419       .  A
C425       Br432   1.927       .  S
C426        C427   1.411       .  A
C427        C428   1.406       .  A
C427       Br434   1.934       .  S
C428        C429   1.422       .  A
C428       Br433   1.935       .  S
C429        C430   1.422       .  A
C430       Br431   1.935       .  S
C435        C436   1.419       .  A
C435        C440   1.402       .  A
C435       Br442   1.939       .  S
C436        C437   1.418       .  A
C437        C438   1.416       .  A
C437       Br444   1.924       .  S
C438        C439   1.408       .  A
C438       Br443   1.922       .  S
C439        C440   1.424       .  A
C440       Br441   1.949       .  S
C445        C446   1.416       .  A
C445        C450   1.405   1_556  A
C445       Br452   1.930       .  S
C446        C447   1.414       .  A
C447        C448   1.409   1_556  A
C447       Br454   1.936       .  S
C448        C449   1.420       .  A
C448       Br453   1.935       .  S
C449        C450   1.415       .  A
C450       Br451   1.939       .  S
C455        C456   1.401       .  A
C455        C460   1.393       .  A
C455       Br462   1.923       .  S
C456        C457   1.412       .  A
C457        C458   1.417       .  A
C457       Br464   1.926       .  S
C458        C459   1.414       .  A
C458       Br463   1.927       .  S
C459        C460   1.417       .  A
C460       Br461   1.933       .  S
C465        C466   1.417       .  A
C465        C470   1.413       .  A
C465       Br472   1.933       .  S
C466        C467   1.408       .  A
C467        C468   1.404       .  A
C467       Br474   1.936       .  S
C468        C469   1.421       .  A
C468       Br473   1.936       .  S
C469        C470   1.413       .  A
C470       Br471   1.933       .  S
C475        C476   1.413       .  A
C475        C480   1.404   1_565  A
C475       Br482   1.931       .  S
C476        C477   1.414       .  A
C477        C478   1.409   1_565  A
C477       Br484   1.934       .  S
C478        C479   1.412       .  A
C478       Br483   1.933       .  S
C479        C480   1.409       .  A
C480       Br481   1.929       .  S
C485        C486   1.416       .  A
C485        C490   1.411   1_556  A
C485       Br492   1.935       .  S
C486        C487   1.414       .  A
C487        C488   1.407   1_556  A
C487       Br494   1.929       .  S
C488        C489   1.413       .  A
C488       Br493   1.935       .  S
C489        C490   1.416       .  A
C490       Br491   1.935       .  S
C495        C496   1.412       .  A
C495        C500   1.415       .  A
C495       Br502   1.932       .  S
C496        C497   1.406       .  A
C497        C498   1.404       .  A
C497       Br504   1.929       .  S
C498        C499   1.416       .  A
C498       Br503   1.928       .  S
C499        C500   1.419       .  A
C500       Br501   1.933       .  S
C505        C506   1.414       .  A
C505        C510   1.406       .  A
C505       Br512   1.942       .  S
C506        C507   1.413       .  A
C507        C508   1.410       .  A
C507       Br514   1.936       .  S
C508        C509   1.419       .  A
C508       Br513   1.935       .  S
C509        C510   1.423       .  A
C510       Br511   1.939       .  S
C515        C516   1.426       .  A
C515        C520   1.411   1_556  A
C515       Br522   1.938       .  S
C516        C517   1.424       .  A
C517        C518   1.412   1_556  A
C517       Br524   1.937       .  S
C518        C519   1.408       .  A
C518       Br523   1.927       .  S
C519        C520   1.408       .  A
C520       Br521   1.934       .  S
C525        C526   1.401       .  A
C525        C530   1.408       .  A
C525       Br532   1.938       .  S
C526        C527   1.407       .  A
C527        C528   1.409       .  A
C527       Br534   1.930       .  S
C528        C529   1.420       .  A
C528       Br533   1.935       .  S
C529        C530   1.435       .  A
C530       Br531   1.942       .  S
C535        C536   1.407       .  A
C535        C540   1.402       .  A
C535       Br542   1.924       .  S
C536        C537   1.420       .  A
C537        C538   1.414       .  A
C537       Br544   1.940       .  S
C538        C539   1.425       .  A
C538       Br543   1.940       .  S
C539        C540   1.420       .  A
C540       Br541   1.931       .  S
C545        C546   1.417       .  A
C545        C550   1.409       .  A
C545       Br552   1.935       .  S
C546        C547   1.423       .  A
C547        C548   1.402       .  A
C547       Br554   1.941       .  S
C548        C549   1.413       .  A
C548       Br553   1.943       .  S
C549        C550   1.415       .  A
C550       Br551   1.935       .  S
C555        C556   1.415       .  A
C555        C560   1.410       .  A
C555       Br562   1.937       .  S
C556        C557   1.416       .  A
C557        C558   1.410       .  A
C557       Br564   1.933       .  S
C558        C559   1.413       .  A
C558       Br563   1.932       .  S
C559        C560   1.417       .  A
C560       Br561   1.937       .  S
C565        C566   1.407       .  A
C565        C570   1.411   1_455  A
C565       Br572   1.928       .  S
C566        C567   1.400       .  A
C567        C568   1.400   1_455  A
C567       Br574   1.929       .  S
C568        C569   1.414       .  A
C568       Br573   1.924       .  S
C569        C570   1.416       .  A
C570       Br571   1.927       .  S
C575        C576   1.410       .  A
C575        C580   1.413   1_556  A
C575       Br582   1.928       .  S
C576        C577   1.405       .  A
C577        C578   1.401   1_556  A
C577       Br584   1.925       .  S
C578        C579   1.406       .  A
C578       Br583   1.922       .  S
C579        C580   1.413       .  A
C580       Br581   1.928       .  S
C585        C586   1.412       .  A
C585        C590   1.410       .  A
C585       Br592   1.930       .  S
C586        C587   1.407       .  A
C587        C588   1.407       .  A
C587       Br594   1.920       .  S
C588        C589   1.405       .  A
C588       Br593   1.920       .  S
C589        C590   1.413       .  A
C590       Br591   1.932       .  S
C595        C596   1.410       .  A
C595        C600   1.405       .  A
C595       Br602   1.940       .  S
C596        C597   1.417       .  A
C597        C598   1.420       .  A
C597       Br604   1.932       .  S
C598        C599   1.418       .  A
C598       Br603   1.924       .  S
C599        C600   1.425       .  A
C600       Br601   1.934       .  S
C605        C606   1.423       .  A
C605        C610   1.407       .  A
C605       Br612   1.931       .  S
C606        C607   1.430       .  A
C607        C608   1.414       .  A
C607       Br614   1.936       .  S
C608        C609   1.407       .  A
C608       Br613   1.934       .  S
C609        C610   1.405       .  A
C610       Br611   1.928       .  S
C615        C616   1.406       .  A
C615        C620   1.411       .  A
C615       Br622   1.931       .  S
C616        C617   1.407       .  A
C617        C618   1.412       .  A
C617       Br624   1.936       .  S
C618        C619   1.430       .  A
C618       Br623   1.940       .  S
C619        C620   1.425       .  A
C620       Br621   1.932       .  S
