geometry optimzed in LAMMPS
_audit_creation_date              2020-12-01 
_audit_creation_method            'lammps2cif' 
_symmetry_space_group_name_H-M    'P1' 
_symmetry_Int_Tables_number       1 
_symmetry_cell_setting            triclinic 
loop_ 
_symmetry_equiv_pos_as_xyz 
  x,y,z 
_cell_length_a                    35.89511432 
_cell_length_b                    35.91931461280653 
_cell_length_c                    34.49671739521124 
_cell_angle_alpha                 89.06846274161599 
_cell_angle_beta                  89.70681331499642 
_cell_angle_gamma                 88.61117352521623 
loop_ 
_atom_site_label 
_atom_site_type_symbol 
_atom_site_fract_x 
_atom_site_fract_y 
_atom_site_fract_z 
_atom_site_charge 
O1          O  0.51072489  0.04073735  0.17790960    -0.80600
O2          O  0.06194304  0.51694220  0.29453778    -0.80700
O3          O  0.45898999  0.09316544  0.27909471    -0.80700
O4          O  0.06652815  0.48281751  0.22015472    -0.80600
O5          O  0.01707880  0.08191175  0.29760873    -0.80700
O6          O  0.03823918  0.01572623  0.17892037    -0.80700
O7          O  0.05786806  0.45724268  0.29007420    -0.80600
O8          O  0.46416342  0.07646970  0.20215619    -0.80700
C9          C  0.49138415  0.07148889  0.17859592     1.09100
C10         C  0.07525040  0.48508623  0.30253806     1.08900
C11         C  0.48835406  0.10502410  0.29456841     1.09100
C12         C  0.06789958  0.50351765  0.19059511     1.09000
O13         O  0.50230035  0.45093058  0.18040246    -0.80600
O14         O  0.46000719  0.53803000  0.33706986    -0.80700
O15         O  0.42389124  0.00659157  0.22296573    -0.80700
O16         O  0.97989648  0.44481454  0.28029118    -0.80600
O17         O  0.00166879  0.47518372  0.33079735    -0.80700
O18         O  0.45860372  0.00323440  0.17306068    -0.80600
O19         O  0.02917241  0.41752465  0.22196281    -0.80600
O20         O  0.42417680  0.02273790  0.29422291    -0.80700
Co21       Co  0.50138152  0.99330997  0.20888095     1.51500
Co22       Co  0.01078996  0.52748108  0.31221409     1.51700
Co23       Co  0.44607145  0.04816126  0.24951698     1.51600
Co24       Co  0.01917622  0.46630059  0.24764617     1.51500
O25         O  0.99583056  0.02036089  0.25620465    -1.42600
C26         C  0.02150634  0.41985162  0.18550666     1.09000
C27         C  0.42979683  0.03160626  0.32853734     1.09100
C28         C  0.42653415  0.00439324  0.18723279     1.09000
C29         C  0.98497494  0.44751433  0.31656430     1.09000
O30         O  0.46333426  0.16860530  0.00298223    -0.80600
O31         O  0.99766651  0.34719987  0.46737042    -0.80700
O32         O  0.41626381  0.28692269  0.02590941    -0.80700
O33         O  0.02160942  0.23149262  0.41250681    -0.80600
O34         O  0.43847406  0.30364182  0.47348269    -0.80700
O35         O  0.47406110  0.20526865  0.43909743    -0.80700
O36         O  0.01011451  0.30005186  0.42750436    -0.80600
O37         O  0.41909278  0.21020818  0.01609465    -0.80700
C38         C  0.42940169  0.17692195  0.00875965     1.09100
C39         C  0.00136196  0.33507944  0.43321905     1.08900
C40         C  0.41312183  0.30412920  0.99363960     1.09100
C41         C  0.99399316  0.21162001  0.40840437     1.09000
O42         O  0.02833744  0.15871684  0.97197807    -0.80600
O43         O  0.97662105  0.32569882  0.04160565    -0.80700
O44         O  0.47680835  0.20454416  0.07199300    -0.80700
O45         O  0.07236841  0.28215023  0.46826995    -0.80600
O46         O  0.04196413  0.30692416  0.51545697    -0.80700
O47         O  0.52789113  0.19232096  0.03764581    -0.80600
O48         O  0.06402824  0.20758710  0.47087987    -0.80600
O49         O  0.47820988  0.28017622  0.07864854    -0.80700
Co50       Co  0.50388680  0.20138088  0.98607012     1.51500
Co51       Co  0.99022751  0.30189996  0.49246800     1.51700
Co52       Co  0.44993471  0.24588192  0.04543174     1.51600
Co53       Co  0.02721391  0.25399766  0.46263964     1.51500
O54         O  0.98543669  0.25042345  0.50600804    -1.42600
C55         C  0.05925016  0.17163692  0.47131719     1.09000
C56         C  0.48261437  0.31458035  0.07197552     1.09100
C57         C  0.50815394  0.18818514  0.06808079     1.09000
C58         C  0.07181697  0.30437471  0.49560486     1.09000
O59         O  0.28602664  0.97778285  0.07699438    -0.80600
O60         O  0.15420785  0.45566317  0.50699911    -0.80700
O61         O  0.20706520  0.03759138  0.07240983    -0.80700
O62         O  0.27887959  0.42765403  0.45880954    -0.80600
O63         O  0.19983578  0.47903216  0.06547076    -0.80700
O64         O  0.28576971  0.42782211  0.02037957    -0.80700
O65         O  0.20621230  0.42789578  0.48544707    -0.80600
O66         O  0.28336889  0.03837878  0.08005043    -0.80700
C67         C  0.29445872  0.00698284  0.09391391     1.09100
C68         C  0.17176595  0.42621535  0.49729900     1.08900
C69         C  0.19441862  0.00653769  0.08410146     1.09100
C70         C  0.29017401  0.41081987  0.48906053     1.09000
O71         O  0.32414503  0.97918033  0.46747977    -0.80600
O72         O  0.16819703  0.02881360  0.51057038    -0.80700
O73         O  0.28895785  0.06630044  0.00136640    -0.80700
O74         O  0.22264600  0.45223254  0.41284343    -0.80600
O75         O  0.18772361  0.49128129  0.44749292    -0.80700
O76         O  0.33022141  0.02733490  0.02727761    -0.80600
O77         O  0.27701691  0.50258081  0.43388090    -0.80600
O78         O  0.21361453  0.06838474  0.99437971    -0.80700
Co79       Co  0.30381832  0.97767221  0.02369505     1.51500
Co80       Co  0.19824561  0.48265116  0.50755602     1.51700
Co81       Co  0.24836354  0.04979472  0.03482654     1.51600
Co82       Co  0.24103607  0.46943089  0.46063224     1.51500
O83         O  0.25181304  0.99791544  0.50688613    -1.42600
C84         C  0.31176842  0.49729812  0.44035515     1.09000
C85         C  0.17955181  0.06145132  0.99806095     1.09100
C86         C  0.32192828  0.05896328  0.01172310     1.09000
C87         C  0.19376590  0.47292204  0.41583026     1.09000
C88         C  0.35037684  0.32740461  0.01601249    -0.21800
C89         C  0.37837492  0.32727561  0.98708113    -0.09800
C90         C  0.37133886  0.34955567  0.45706452     0.29000
C91         C  0.34107189  0.37505277  0.45536399    -0.21800
C92         C  0.31560719  0.37795993  0.48646232    -0.09900
C93         C  0.32092156  0.35364532  0.01533727     0.29000
F94         F  0.29580762  0.35382252  0.04489454    -0.20400
H95         H  0.35215163  0.30824936  0.04053475     0.17400
H96         H  0.33913601  0.39437817  0.43098082     0.17400
F97         F  0.39676277  0.34945393  0.42782411    -0.20400
C98         C  0.36417695  0.15482671  0.00228071    -0.21800
C99         C  0.40210391  0.14662795  0.00804744    -0.09800
C100        C  0.41369352  0.10910808  0.01403863     0.29000
C101        C  0.38766294  0.08075871  0.01493987    -0.21800
C102        C  0.34971007  0.08888296  0.00888573    -0.09900
C103        C  0.33824014  0.12640451  0.00238848     0.29000
F104        F  0.30218941  0.13302744  0.48183452    -0.20400
H105        H  0.35326662  0.18209561  0.48792452     0.17400
H106        H  0.39725912  0.05244393  0.02084812     0.17400
F107        F  0.45006783  0.09976263  0.02033891    -0.20400
C108        C  0.13076731  0.33360771  0.47154973    -0.21800
C109        C  0.10359227  0.32966329  0.50103867    -0.09800
C110        C  0.10386103  0.35436054  0.53206605     0.29000
C111        C  0.12741689  0.38477258  0.53142198    -0.21800
C112        C  0.15246286  0.39036410  0.50061010    -0.09900
C113        C  0.15534132  0.36347462  0.47152951     0.29000
F114        F  0.17968386  0.36763831  0.44159312    -0.20400
H115        H  0.13159659  0.31488367  0.44725815     0.17400
H116        H  0.12539627  0.40464891  0.55468425     0.17400
F117        F  0.08053609  0.34976784  0.56253527    -0.20400
C118        C  0.11174275  0.07896745  0.48308265    -0.21800
C119        C  0.15055337  0.09020101  0.98874394    -0.09800
C120        C  0.15854427  0.12835855  0.98456166     0.29000
C121        C  0.12968271  0.15482989  0.97765849    -0.21800
C122        C  0.09071131  0.14390313  0.47536227    -0.09900
C123        C  0.08335711  0.10535589  0.47616389     0.29000
F124        F  0.04843451  0.09268326  0.47102152    -0.20400
H125        H  0.10491504  0.04976524  0.48345359     0.17400
H126        H  0.13627548  0.18387686  0.97529831     0.17400
F127        F  0.19389908  0.14033652  0.98849809    -0.20400
C128        C  0.40605297  0.02721386  0.39689147    -0.21800
C129        C  0.39884827  0.02799607  0.35700670    -0.09800
C130        C  0.36058574  0.52032347  0.34599549     0.29000
C131        C  0.33215410  0.51426894  0.37308322    -0.21800
C132        C  0.34043611  0.51023067  0.41254839    -0.09900
C133        C  0.37778569  0.01889446  0.42347878     0.29000
F134        F  0.38654174  0.01642587  0.46165920    -0.20400
H135        H  0.43399487  0.03132535  0.40747085     0.17400
H136        H  0.30396639  0.51075198  0.36292171     0.17400
F137        F  0.35151935  0.52253840  0.30786963    -0.20400
C138        C  0.12711337  0.44773859  0.33541219    -0.21800
C139        C  0.10819298  0.48189355  0.32864233    -0.09800
C140        C  0.11981265  0.51347899  0.34903104     0.29000
C141        C  0.14820759  0.51037398  0.37645737    -0.21800
C142        C  0.16666162  0.47627053  0.38364435    -0.10500
C143        C  0.15639966  0.44495875  0.36231343     0.29000
F144        F  0.17327797  0.41128388  0.36902623    -0.20400
H145        H  0.11882463  0.42296432  0.32029134     0.17400
H146        H  0.15555616  0.53487592  0.39262648     0.17400
F147        F  0.10285715  0.54736784  0.34372441    -0.20400
C148        C  0.16135634  0.97662285  0.14093889    -0.21800
C149        C  0.16515251  0.00665447  0.11479420    -0.09800
C150        C  0.13616413  0.53910863  0.11557341     0.29000
C151        C  0.10628174  0.53789710  0.14175087    -0.21800
C152        C  0.10266379  0.50776782  0.16766016    -0.09900
C153        C  0.13022418  0.47900635  0.16747122     0.29000
F154        F  0.12736765  0.44888711  0.19149602    -0.20400
H155        H  0.18128622  0.95350957  0.14052892     0.17400
H156        H  0.08533313  0.56010277  0.14100486     0.17400
F157        F  0.13737142  0.56805421  0.08982577    -0.20400
C158        C  0.36181036  0.02726905  0.17441877    -0.21800
C159        C  0.39261831  0.00459529  0.16365411    -0.09800
C160        C  0.35708246  0.47889831  0.17027230     0.29000
C161        C  0.32409934  0.48244944  0.14886699    -0.21800
C162        C  0.32646883  0.00490293  0.12034443    -0.09900
C163        C  0.32914518  0.02804852  0.15242336     0.29000
F164        F  0.30032290  0.05113859  0.16245371    -0.20400
H165        H  0.36340477  0.04501421  0.19943298     0.17400
H166        H  0.30366294  0.46080348  0.15111092     0.17400
F167        F  0.36224461  0.44928030  0.19476735    -0.20400
C168        C  0.01878812  0.15863168  0.31863961    -0.21800
C169        C  0.48612619  0.14103217  0.31393115    -0.09800
C170        C  0.45340440  0.15110550  0.33449344     0.29000
C171        C  0.45470751  0.17737572  0.36374894    -0.21800
C172        C  0.98883998  0.19265395  0.37128284    -0.09900
C173        C  0.01997889  0.18598050  0.34680817     0.29000
F174        F  0.05293422  0.20275676  0.35272948    -0.20400
H175        H  0.04396713  0.15132874  0.30276561     0.17400
H176        H  0.43036963  0.18214651  0.38185390     0.17400
F177        F  0.42138539  0.13235810  0.32983582    -0.20400
C178        C  0.98993431  0.37981277  0.33286844    -0.21800
C179        C  0.97803379  0.41596910  0.34303794    -0.09800
C180        C  0.46977044  0.42268796  0.38310471     0.29000
C181        C  0.47644786  0.39598537  0.41179771    -0.21800
C182        C  0.99169762  0.36129398  0.40101582    -0.09900
C183        C  0.99667608  0.35246472  0.36170564     0.29000
F184        F  0.00984008  0.31833905  0.35125410    -0.20400
H185        H  0.99701792  0.37365394  0.30304996     0.17400
H186        H  0.46994959  0.40331931  0.44144231     0.17400
F187        F  0.45689311  0.45691574  0.39343481    -0.20400
C188        C  0.50813340  0.37484563  0.09379366    -0.21800
C189        C  0.49502142  0.33937847  0.10347393    -0.09800
C190        C  0.99992861  0.32710299  0.14436193     0.29000
C191        C  0.01131132  0.35299320  0.17163056    -0.21800
C192        C  0.02336517  0.38809998  0.15925602    -0.09900
C193        C  0.51899564  0.39922148  0.12250676     0.29000
F194        F  0.53131582  0.43328302  0.11146332    -0.20400
H195        H  0.50984472  0.38397707  0.06376482     0.17400
H196        H  0.00784536  0.34676866  0.20225143     0.17400
F197        F  0.98673011  0.29398623  0.15714259    -0.20400
C198        C  0.99836596  0.13495652  0.16545140    -0.21800
C199        C  0.50178246  0.10162415  0.15121226    -0.09800
C200        C  0.51330406  0.09358650  0.11307257     0.29000
C201        C  0.52098866  0.12251320  0.08671435    -0.21800
C202        C  0.51721225  0.15977264  0.09796648    -0.09900
C203        C  0.00600857  0.16468017  0.14043343     0.29000
F204        F  0.99963733  0.19995835  0.15285670    -0.20400
H205        H  0.98868658  0.14071125  0.19460814     0.17400
H206        H  0.52626694  0.11589128  0.05660594     0.17400
F207        F  0.51413482  0.05799941  0.10037411    -0.20400
O208        O  0.50904402  0.04736584  0.67551735    -0.80600
O209        O  0.06146317  0.51604257  0.79608447    -0.80700
O210        O  0.46009062  0.08573307  0.78061901    -0.80700
O211        O  0.06648697  0.48219130  0.72095938    -0.80600
O212        O  0.01881347  0.08140500  0.79781138    -0.80700
O213        O  0.04045870  0.01788848  0.68035583    -0.80700
O214        O  0.05640484  0.45638549  0.78997166    -0.80600
O215        O  0.46009901  0.07395277  0.70302782    -0.80700
C216        C  0.48722878  0.07438340  0.67881515     1.09100
C217        C  0.07367095  0.48363633  0.80377204     1.08900
C218        C  0.49085789  0.09807737  0.79230015     1.09100
C219        C  0.06887903  0.50328174  0.69180474     1.09000
O220        O  0.50956887  0.45197309  0.67098370    -0.80600
O221        O  0.46075223  0.54030062  0.83831006    -0.80700
O222        O  0.42213832  0.00135630  0.72130768    -0.80700
O223        O  0.97850152  0.44539342  0.78007607    -0.80600
O224        O  0.00055788  0.47474087  0.83102051    -0.80700
O225        O  0.45363644  0.00279314  0.66791477    -0.80600
O226        O  0.02689311  0.41828482  0.72149296    -0.80600
O227        O  0.42548934  0.01473692  0.79517233    -0.80700
Co228      Co  0.49979258  0.00103467  0.69832386     1.51500
Co229      Co  0.01041060  0.52734245  0.81356296     1.51700
Co230      Co  0.44565049  0.04127415  0.75004587     1.51600
Co231      Co  0.01816623  0.46683668  0.74768571     1.51500
O232        O  0.99693379  0.02063702  0.75691485    -1.42600
C233        C  0.01924368  0.42122621  0.68509720     1.09000
C234        C  0.43177003  0.02562543  0.82880441     1.09100
C235        C  0.42300910  0.99985843  0.68512051     1.09000
C236        C  0.98406700  0.44716412  0.81636925     1.09000
O237        O  0.45957932  0.16964638  0.50828573    -0.80600
O238        O  0.99789105  0.34584632  0.96691283    -0.80700
O239        O  0.41429567  0.28803325  0.52999513    -0.80700
O240        O  0.02354513  0.23040719  0.91345094    -0.80600
O241        O  0.44017028  0.30399216  0.96969731    -0.80700
O242        O  0.47795756  0.20454220  0.93412750    -0.80700
O243        O  0.01078211  0.29866160  0.92731502    -0.80600
O244        O  0.41527518  0.21166474  0.51912481    -0.80700
C245        C  0.42549774  0.17820692  0.51260144     1.09100
C246        C  0.00161604  0.33363193  0.93276108     1.08900
C247        C  0.41123746  0.30407116  0.49720955     1.09100
C248        C  0.99602619  0.21047651  0.90942457     1.09000
O249        O  0.02650635  0.15939163  0.47226713    -0.80600
O250        O  0.97400469  0.32712364  0.54054383    -0.80700
O251        O  0.47271411  0.20515909  0.57506755    -0.80700
O252        O  0.07385098  0.28173502  0.96771467    -0.80600
O253        O  0.04378075  0.30684704  0.01489623    -0.80700
O254        O  0.52480891  0.19437250  0.54188821    -0.80600
O255        O  0.06574799  0.20707580  0.97087023    -0.80600
O256        O  0.47584993  0.27945137  0.58270399    -0.80700
Co257      Co  0.50041457  0.20191175  0.49060625     1.51500
Co258      Co  0.99179976  0.30063571  0.99296199     1.51700
Co259      Co  0.44674939  0.24649188  0.54911976     1.51600
Co260      Co  0.02888835  0.25335014  0.96308876     1.51500
O261        O  0.98796137  0.24927868  0.00721168    -1.42600
C262        C  0.06102621  0.17114313  0.97101689     1.09000
C263        C  0.48181700  0.31335958  0.57529714     1.09100
C264        C  0.50499075  0.19081615  0.57226619     1.09000
C265        C  0.07340020  0.30423773  0.99474164     1.09000
O266        O  0.28396176  0.97569573  0.57394505    -0.80600
O267        O  0.15491697  0.45491364  0.00834295    -0.80700
O268        O  0.20647144  0.03638069  0.57124194    -0.80700
O269        O  0.27982059  0.42923672  0.95792352    -0.80600
O270        O  0.19918078  0.47813360  0.56509711    -0.80700
O271        O  0.28443106  0.42616087  0.52127138    -0.80700
O272        O  0.20700693  0.42846376  0.98499612    -0.80600
O273        O  0.28231066  0.03622471  0.57820380    -0.80700
C274        C  0.29235808  0.00433477  0.59170330     1.09100
C275        C  0.17283299  0.42603581  0.99760734     1.08900
C276        C  0.19384042  0.00549744  0.58320093     1.09100
C277        C  0.29188252  0.41266924  0.98808379     1.09000
O278        O  0.32556440  0.97903493  0.97009313    -0.80600
O279        O  0.17015451  0.02997993  0.01154220    -0.80700
O280        O  0.28713610  0.06545802  0.49940558    -0.80700
O281        O  0.22223138  0.45332339  0.91218612    -0.80600
O282        O  0.18693271  0.49074771  0.94835049    -0.80700
O283        O  0.32839676  0.02668641  0.52537756    -0.80600
O284        O  0.27672362  0.50402154  0.93274088    -0.80600
O285        O  0.21148267  0.06776651  0.49387774    -0.80700
Co286      Co  0.30243803  0.97675001  0.52104490     1.51500
Co287      Co  0.19819474  0.48289853  0.00796873     1.51700
Co288      Co  0.24705486  0.04864386  0.53335274     1.51600
Co289      Co  0.24111450  0.47053532  0.95982221     1.51500
O290        O  0.25325970  0.99882417  0.00883128    -1.42600
C291        C  0.31153209  0.49928832  0.93946208     1.09000
C292        C  0.17742222  0.06070486  0.49791010     1.09100
C293        C  0.32007079  0.05837576  0.50991046     1.09000
C294        C  0.19259337  0.47280172  0.91641627     1.09000
C295        C  0.34848945  0.32688563  0.51904493    -0.21800
C296        C  0.37621699  0.32614111  0.48984044    -0.09800
C297        C  0.37416114  0.35234650  0.95545516     0.29000
C298        C  0.34418502  0.37833541  0.95451873    -0.21800
C299        C  0.31814136  0.38018970  0.98519951    -0.09900
C300        C  0.31880488  0.35264599  0.51761697     0.29000
F301        F  0.29417864  0.35393248  0.54761165    -0.20400
H302        H  0.35074469  0.30882809  0.54441039     0.17400
H303        H  0.34272484  0.39861133  0.93094825     0.17400
F304        F  0.39985887  0.35319205  0.92650851    -0.20400
C305        C  0.36206111  0.15440640  0.49752095    -0.21800
C306        C  0.39831470  0.14784077  0.51128162    -0.09800
C307        C  0.40904089  0.11139151  0.52320063     0.29000
C308        C  0.38387428  0.08236551  0.52175330    -0.21800
C309        C  0.34754105  0.08873177  0.50799937    -0.09900
C310        C  0.33696842  0.12520685  0.49547655     0.29000
F311        F  0.30175454  0.13604556  0.99742426    -0.20400
H312        H  0.35451342  0.18335409  0.99770008     0.17400
H313        H  0.39274629  0.05493994  0.53208182     0.17400
F314        F  0.44362039  0.10394687  0.53755643    -0.20400
C315        C  0.12979586  0.33586578  0.96827510    -0.21800
C316        C  0.10506782  0.32958730  0.99957365    -0.09800
C317        C  0.10760443  0.35188261  0.03236943     0.29000
C318        C  0.13142189  0.38210205  0.03233876    -0.21800
C319        C  0.15408235  0.38996287  0.00007462    -0.09900
C320        C  0.15429039  0.36570679  0.96855535     0.29000
F321        F  0.17557232  0.37276592  0.93671374    -0.20400
H322        H  0.12852285  0.31919048  0.94246620     0.17400
H323        H  0.13128506  0.40021987  0.05715537     0.17400
F324        F  0.08621312  0.34515821  0.06400480    -0.20400
C325        C  0.11353373  0.07926110  0.98614986    -0.21800
C326        C  0.14832770  0.08979471  0.48955107    -0.09800
C327        C  0.15596428  0.12819823  0.48951434     0.29000
C328        C  0.12737857  0.15493745  0.48237449    -0.21800
C329        C  0.09250859  0.14360853  0.97491136    -0.09900
C330        C  0.08494220  0.10533848  0.97956984     0.29000
F331        F  0.04963911  0.09262363  0.97903275    -0.20400
H332        H  0.10646188  0.05039842  0.98970340     0.17400
H333        H  0.13375841  0.18419640  0.48326072     0.17400
F334        F  0.19062665  0.13999024  0.49787205    -0.20400
C335        C  0.40924121  0.02192831  0.89779849    -0.21800
C336        C  0.40124921  0.02434136  0.85811182    -0.09800
C337        C  0.36065962  0.52433425  0.84544662     0.29000
C338        C  0.33213402  0.51757104  0.87232940    -0.21800
C339        C  0.34038956  0.51208247  0.91168423    -0.09900
C340        C  0.38102777  0.01437637  0.92479344     0.29000
F341        F  0.39067820  0.00920329  0.96250313    -0.20400
H342        H  0.43769055  0.02375353  0.90778344     0.17400
H343        H  0.30386070  0.51493613  0.86207637     0.17400
F344        F  0.35158529  0.52818020  0.80741210    -0.20400
C345        C  0.13205449  0.45115814  0.82913710    -0.21800
C346        C  0.10432088  0.47921546  0.83209082    -0.09800
C347        C  0.10616496  0.50473411  0.86253447     0.29000
C348        C  0.13544597  0.50282085  0.88878890    -0.21800
C349        C  0.16375511  0.47540712  0.88573418    -0.10500
C350        C  0.16175310  0.44929983  0.85565970     0.29000
F351        F  0.18784140  0.42153627  0.85241601    -0.20400
H352        H  0.13098693  0.43109511  0.80609589     0.17400
H353        H  0.13566718  0.52285320  0.91190140     0.17400
F354        F  0.07894374  0.53116166  0.86766988    -0.20400
C355        C  0.15969189  0.97448361  0.63866816    -0.21800
C356        C  0.16595143  0.00608731  0.61531296    -0.09800
C357        C  0.14009218  0.54000035  0.62019039     0.29000
C358        C  0.11012867  0.53883146  0.64637648    -0.21800
C359        C  0.10401912  0.50694161  0.66924202    -0.09900
C360        C  0.12924545  0.47634582  0.66611632     0.29000
F361        F  0.12393326  0.44462848  0.68714708    -0.20400
H362        H  0.17697746  0.94959356  0.63530230     0.17400
H363        H  0.09101394  0.56256099  0.64798582     0.17400
F364        F  0.14378174  0.57100493  0.59759085    -0.20400
C365        C  0.35558394  0.01475952  0.67763760    -0.21800
C366        C  0.38829327  0.99709096  0.66355346    -0.09800
C367        C  0.36282924  0.47612387  0.66907763     0.29000
C368        C  0.32976342  0.47930367  0.64766799    -0.21800
C369        C  0.32376494  0.00072421  0.61836054    -0.09900
C370        C  0.32354953  0.01718566  0.65478424     0.29000
F371        F  0.29271569  0.03565664  0.66794952    -0.20400
H372        H  0.35541113  0.02822420  0.70551670     0.17400
H373        H  0.30979438  0.45721250  0.64969011     0.17400
F374        F  0.36841401  0.44632220  0.69323170    -0.20400
C375        C  0.02230979  0.15610642  0.82111226    -0.21800
C376        C  0.49105782  0.13470278  0.81148348    -0.09800
C377        C  0.45799039  0.14962880  0.82817508     0.29000
C378        C  0.45970938  0.17662552  0.85684549    -0.21800
C379        C  0.99176275  0.19090983  0.87270910    -0.09900
C380        C  0.02380382  0.18244022  0.85014680     0.29000
F381        F  0.05761251  0.19626429  0.85883468    -0.20400
H382        H  0.04784032  0.14754970  0.80653339     0.17400
H383        H  0.43443033  0.18529124  0.87179477     0.17400
F384        F  0.42424285  0.13566703  0.81977024    -0.20400
C385        C  0.99125772  0.37912083  0.83219029    -0.21800
C386        C  0.97796021  0.41486856  0.84239637    -0.09800
C387        C  0.46615915  0.42117746  0.87754822     0.29000
C388        C  0.47372066  0.39442748  0.90608403    -0.21800
C389        C  0.99183237  0.35975089  0.90030754    -0.09900
C390        C  0.99806286  0.35155367  0.86096580     0.29000
F391        F  0.01249853  0.31791387  0.85049739    -0.20400
H392        H  0.99919693  0.37349825  0.80247916     0.17400
H393        H  0.46554485  0.40061190  0.93559693     0.17400
F394        F  0.45024849  0.45416034  0.88790970    -0.20400
C395        C  0.51225377  0.37174645  0.59253730    -0.21800
C396        C  0.49775696  0.33765099  0.60485868    -0.09800
C397        C  0.99284458  0.32973147  0.64401534     0.29000
C398        C  0.00489367  0.35530074  0.67128886    -0.21800
C399        C  0.01925599  0.38950218  0.65889831    -0.09900
C400        C  0.52584605  0.39657095  0.61904087     0.29000
F401        F  0.53912619  0.42948488  0.60562724    -0.20400
H402        H  0.51283264  0.37958215  0.56207695     0.17400
H403        H  0.00039833  0.34960619  0.70187272     0.17400
F404        F  0.97724513  0.29770338  0.65673333    -0.20400
C405        C  0.99357744  0.13665857  0.66519181    -0.21800
C406        C  0.49482751  0.10558269  0.65258381    -0.09800
C407        C  0.51097180  0.09829725  0.61586095     0.29000
C408        C  0.52112888  0.12743538  0.59145015    -0.21800
C409        C  0.51451092  0.16407625  0.60279694    -0.09900
C410        C  0.99964198  0.16670131  0.64012019     0.29000
F411        F  0.98874867  0.20135934  0.65144708    -0.20400
H412        H  0.98134554  0.14191150  0.69342458     0.17400
H413        H  0.53006191  0.12133785  0.56210084     0.17400
F414        F  0.51509453  0.06298611  0.60261615    -0.20400
O415        O  0.51083134  0.55291383  0.18552194    -0.80600
O416        O  0.06202986  0.01851312  0.29476785    -0.80700
O417        O  0.45470573  0.58571387  0.28132731    -0.80700
O418        O  0.06668756  0.98089254  0.21968631    -0.80600
O419        O  0.01727623  0.57958383  0.29701832    -0.80700
O420        O  0.03688889  0.51733292  0.17984574    -0.80700
O421        O  0.05766082  0.95849016  0.28968366    -0.80600
O422        O  0.45558175  0.57375009  0.20348676    -0.80700
C423        C  0.48587254  0.57734949  0.18412523     1.09100
C424        C  0.07481271  0.98632349  0.30259742     1.08900
C425        C  0.48518720  0.59905177  0.29279207     1.09100
C426        C  0.06881801  0.00111437  0.18985799     1.09000
O427        O  0.51231475  0.95504298  0.17099638    -0.80600
O428        O  0.46144889  0.04317817  0.33808097    -0.80700
O429        O  0.42123077  0.49905048  0.22122741    -0.80700
O430        O  0.97927324  0.94655927  0.28128860    -0.80600
O431        O  0.00228078  0.97694804  0.33094757    -0.80700
O432        O  0.45068055  0.50910561  0.16787364    -0.80600
O433        O  0.02673999  0.91703798  0.22296561    -0.80600
O434        O  0.42292766  0.51313549  0.29564575    -0.80700
Co435      Co  0.49668448  0.50429653  0.19883014     1.51500
Co436      Co  0.01070256  0.02911998  0.31182148     1.51700
Co437      Co  0.44201102  0.54049289  0.25065203     1.51600
Co438      Co  0.01865113  0.96667212  0.24760271     1.51500
O439        O  0.99504408  0.51912937  0.25721149    -1.42600
C440        C  0.01861806  0.91881630  0.18657465     1.09000
C441        C  0.42857913  0.52478139  0.32909809     1.09100
C442        C  0.42068400  0.50233016  0.18508407     1.09000
C443        C  0.98558083  0.94907838  0.31735917     1.09000
O444        O  0.45928434  0.67100290  0.01154285    -0.80600
O445        O  0.00285487  0.84651064  0.46746488    -0.80700
O446        O  0.41712427  0.79077128  0.03180988    -0.80700
O447        O  0.02282346  0.73130179  0.41088874    -0.80600
O448        O  0.44007157  0.80271439  0.47100011    -0.80700
O449        O  0.47497295  0.70458178  0.43516607    -0.80700
O450        O  0.01276250  0.79989110  0.42647097    -0.80600
O451        O  0.41585916  0.71402160  0.02237835    -0.80700
C452        C  0.42531003  0.68034753  0.01554590     1.09100
C453        C  0.00543084  0.83501158  0.43296424     1.08900
C454        C  0.41411811  0.80600971  0.99863070     1.09100
C455        C  0.99579743  0.71058333  0.40745455     1.09000
O456        O  0.02566150  0.65977368  0.96941877    -0.80600
O457        O  0.97373106  0.82606698  0.04129646    -0.80700
O458        O  0.47331751  0.70710426  0.07770773    -0.80700
O459        O  0.07526288  0.78055901  0.46571518    -0.80600
O460        O  0.04690222  0.80436159  0.51465108    -0.80700
O461        O  0.52529731  0.69472875  0.04509699    -0.80600
O462        O  0.06539813  0.70648148  0.46737558    -0.80600
O463        O  0.47930051  0.78132596  0.08386982    -0.80700
Co464      Co  0.50116952  0.70164020  0.99343721     1.51500
Co465      Co  0.99484866  0.80093731  0.49242179     1.51700
Co466      Co  0.44860936  0.74867109  0.05127420     1.51600
Co467      Co  0.02939680  0.75338744  0.46086951     1.51500
O468        O  0.98893878  0.74943927  0.50543929    -1.42600
C469        C  0.06045033  0.67059149  0.46770434     1.09000
C470        C  0.48609880  0.81496279  0.07588267     1.09100
C471        C  0.50523240  0.69200506  0.07541423     1.09000
C472        C  0.07595289  0.80205857  0.49362544     1.09000
O473        O  0.28431864  0.48128072  0.07714658    -0.80600
O474        O  0.15586741  0.95397158  0.50624441    -0.80700
O475        O  0.20298709  0.53994250  0.06946359    -0.80700
O476        O  0.28057044  0.92769887  0.45476786    -0.80600
O477        O  0.20228876  0.97706184  0.06561127    -0.80700
O478        O  0.28567902  0.92631063  0.02022798    -0.80700
O479        O  0.20788967  0.92756896  0.48261916    -0.80600
O480        O  0.27824557  0.54217630  0.07705338    -0.80700
C481        C  0.28966317  0.51190299  0.09318794     1.09100
C482        C  0.17374093  0.92512834  0.49521625     1.08900
C483        C  0.19141960  0.50904644  0.08277299     1.09100
C484        C  0.29162442  0.91022505  0.48478598     1.09000
O485        O  0.32290161  0.47854814  0.46993548    -0.80600
O486        O  0.16750371  0.52982764  0.50988161    -0.80700
O487        O  0.28479851  0.56871822  0.99813659    -0.80700
O488        O  0.22309724  0.95388299  0.41039362    -0.80600
O489        O  0.18835402  0.99130362  0.44725385    -0.80700
O490        O  0.32613717  0.53088044  0.02573999    -0.80600
O491        O  0.27796384  0.00336750  0.43189112    -0.80600
O492        O  0.20916204  0.56779663  0.99043286    -0.80700
Co493      Co  0.30144577  0.48040390  0.02318175     1.51500
Co494      Co  0.19940985  0.98170043  0.50679255     1.51700
Co495      Co  0.24405012  0.55173158  0.03149721     1.51600
Co496      Co  0.24230067  0.96960320  0.45824605     1.51500
O497        O  0.25096157  0.49839459  0.50880105    -1.42600
C498        C  0.31277412  0.99829357  0.43821661     1.09000
C499        C  0.17523367  0.56086744  0.99536461     1.09100
C500        C  0.31759593  0.56224591  0.00970282     1.09000
C501        C  0.19394425  0.97401928  0.41485151     1.09000
C502        C  0.35043979  0.82765780  0.01866441    -0.21800
C503        C  0.37927240  0.82802505  0.99067317    -0.09800
C504        C  0.37260578  0.84761312  0.45371758     0.29000
C505        C  0.34231167  0.87317371  0.45145158    -0.21800
C506        C  0.31704532  0.87705333  0.48260437    -0.09900
C507        C  0.32043954  0.85301305  0.01655298     0.29000
F508        F  0.29462720  0.85327741  0.04548251    -0.20400
H509        H  0.35195028  0.80893194  0.04356102     0.17400
H510        H  0.34017448  0.89176536  0.42648012     0.17400
F511        F  0.39764074  0.84644100  0.42413155    -0.20400
C512        C  0.35933938  0.65905806  0.00737982    -0.21800
C513        C  0.39730674  0.65053956  0.01318704    -0.09800
C514        C  0.40868468  0.61268804  0.01676473     0.29000
C515        C  0.38279693  0.58441647  0.01471787    -0.21800
C516        C  0.34494148  0.59273605  0.00856935    -0.09900
C517        C  0.33337654  0.63055759  0.00491027     0.29000
F518        F  0.29979210  0.63576150  0.49269041    -0.20400
H519        H  0.35258351  0.68325159  0.49454259     0.17400
H520        H  0.39245849  0.55584146  0.01871481     0.17400
F521        F  0.44483546  0.60270466  0.02344314    -0.20400
C522        C  0.13158449  0.83431310  0.46624283    -0.21800
C523        C  0.10775983  0.82730267  0.49812798    -0.09800
C524        C  0.11066580  0.84941910  0.53103349     0.29000
C525        C  0.13365218  0.88029790  0.53050710    -0.21800
C526        C  0.15524974  0.88890886  0.49767625    -0.09900
C527        C  0.15534201  0.86476352  0.46605578     0.29000
F528        F  0.17575570  0.87245089  0.43375274    -0.20400
H529        H  0.13002608  0.81779309  0.44034325     0.17400
H530        H  0.13376980  0.89824268  0.55545731     0.17400
F531        F  0.09025974  0.84196360  0.56321619    -0.20400
C532        C  0.11342642  0.57845871  0.47459986    -0.21800
C533        C  0.14641212  0.58977128  0.98685145    -0.09800
C534        C  0.15371980  0.62798433  0.99021538     0.29000
C535        C  0.12550566  0.65487972  0.98303712    -0.21800
C536        C  0.09201544  0.64326192  0.46981918    -0.09900
C537        C  0.08524694  0.60480113  0.46702362     0.29000
F538        F  0.05101633  0.59228443  0.45805385    -0.20400
H539        H  0.10719273  0.54914036  0.47275907     0.17400
H540        H  0.13146696  0.68401987  0.98676841     0.17400
F541        F  0.18752961  0.63925652  0.00227069    -0.20400
C542        C  0.40564894  0.52265939  0.39781726    -0.21800
C543        C  0.39793732  0.52328092  0.35804972    -0.09800
C544        C  0.36183514  0.02321725  0.34441384     0.29000
C545        C  0.33340101  0.01569435  0.37110440    -0.21800
C546        C  0.34126115  0.01218827  0.41070992    -0.09900
C547        C  0.37745128  0.51531505  0.42479279     0.29000
F548        F  0.38681183  0.51169109  0.46272243    -0.20400
H549        H  0.43391255  0.52569407  0.40795556     0.17400
H550        H  0.30558683  0.01082946  0.36056043     0.17400
F551        F  0.35308086  0.02499997  0.30617698    -0.20400
C552        C  0.13308459  0.95369352  0.32770972    -0.21800
C553        C  0.10628698  0.98267322  0.33007912    -0.09800
C554        C  0.10949321  0.00917294  0.35951337     0.29000
C555        C  0.13868075  0.00665461  0.38594110    -0.21800
C556        C  0.16566532  0.97787660  0.38375323    -0.10500
C557        C  0.16281381  0.95143630  0.35411314     0.29000
F558        F  0.18792920  0.92273740  0.35138224    -0.20400
H559        H  0.13111683  0.93304049  0.30539480     0.17400
H560        H  0.13976971  0.02709304  0.40858500     0.17400
F561        F  0.08350912  0.03694870  0.36381408    -0.20400
C562        C  0.15972565  0.47976551  0.14059906    -0.21800
C563        C  0.16290263  0.50961435  0.11417307    -0.09800
C564        C  0.13838046  0.03609997  0.11574748     0.29000
C565        C  0.10808291  0.03489030  0.14138326    -0.21800
C566        C  0.10390568  0.00473963  0.16717228    -0.09900
C567        C  0.13134061  0.97583627  0.16729234     0.29000
F568        F  0.12801331  0.94571336  0.19122824    -0.20400
H569        H  0.17967293  0.45666562  0.13991604     0.17400
H570        H  0.08730715  0.05722783  0.14039030     0.17400
F571        F  0.14004318  0.06507937  0.09008365    -0.20400
C572        C  0.37890001  0.53596217  0.14042744    -0.21800
C573        C  0.38525723  0.50491089  0.16458325    -0.09800
C574        C  0.39017073  0.98206058  0.13115997     0.29000
C575        C  0.35713127  0.98177890  0.11012949    -0.21800
C576        C  0.31837407  0.51295201  0.12332396    -0.09900
C577        C  0.34555794  0.54048820  0.12058836     0.29000
F578        F  0.34139355  0.57045498  0.09644535    -0.20400
H579        H  0.39998817  0.55686699  0.13682707     0.17400
H580        H  0.35598766  0.96436839  0.08481446     0.17400
F581        F  0.41942731  0.95994305  0.12015993    -0.20400
C582        C  0.02353539  0.65115123  0.32340549    -0.21800
C583        C  0.48464047  0.63575801  0.31176511    -0.09800
C584        C  0.45210902  0.64885843  0.33090905     0.29000
C585        C  0.45439448  0.67588329  0.35950651    -0.21800
C586        C  0.99234351  0.68986326  0.37132827    -0.09900
C587        C  0.02525537  0.67693716  0.35285428     0.29000
F588        F  0.05944761  0.68580546  0.36614519    -0.20400
H589        H  0.04937248  0.63940996  0.31204981     0.17400
H590        H  0.42983011  0.68304759  0.37642856     0.17400
F591        F  0.41876563  0.63289396  0.32512828    -0.20400
C592        C  0.99352738  0.88146661  0.33335620    -0.21800
C593        C  0.98058444  0.91715860  0.34400409    -0.09800
C594        C  0.47116297  0.92472031  0.38078440     0.29000
C595        C  0.47748926  0.89712681  0.40886712    -0.21800
C596        C  0.99598351  0.86196674  0.40128454    -0.09900
C597        C  0.00119196  0.85392695  0.36179188     0.29000
F598        F  0.01542375  0.82038023  0.35076436    -0.20400
H599        H  0.00048045  0.87582626  0.30338942     0.17400
H600        H  0.47007707  0.90336517  0.43857302     0.17400
F601        F  0.45736634  0.95839470  0.39193546    -0.20400
C602        C  0.51662856  0.87373972  0.09231600    -0.21800
C603        C  0.50290061  0.83936648  0.10492505    -0.09800
C604        C  0.99004709  0.82764062  0.14542926     0.29000
C605        C  0.00204343  0.85302280  0.17309369    -0.21800
C606        C  0.01858273  0.88637612  0.16110338    -0.09900
C607        C  0.52861583  0.89953066  0.11876657     0.29000
F608        F  0.53995990  0.93312569  0.10513098    -0.20400
H609        H  0.51705450  0.88132626  0.06179221     0.17400
H610        H  0.99591588  0.84795965  0.20348189     0.17400
F611        F  0.97263952  0.79640085  0.15762334    -0.20400
C612        C  0.98806580  0.63371315  0.16341566    -0.21800
C613        C  0.49282117  0.60794182  0.15701255    -0.09800
C614        C  0.51008930  0.60001077  0.12103154     0.29000
C615        C  0.52086122  0.62875072  0.09630422    -0.21800
C616        C  0.51376463  0.66561858  0.10667677    -0.09900
C617        C  0.99502674  0.66342956  0.13818585     0.29000
F618        F  0.98574585  0.69846547  0.14963880    -0.20400
H619        H  0.97671660  0.63944783  0.19191538     0.17400
H620        H  0.53085582  0.62213300  0.06745265     0.17400
F621        F  0.51490758  0.56439278  0.10893075    -0.20400
O622        O  0.50925034  0.53750209  0.67765477    -0.80600
O623        O  0.06314716  0.01795030  0.79590382    -0.80700
O624        O  0.45881269  0.59036342  0.77971913    -0.80700
O625        O  0.06816707  0.98209481  0.72100712    -0.80600
O626        O  0.01791471  0.58024010  0.80059705    -0.80700
O627        O  0.03838654  0.51817954  0.68101093    -0.80700
O628        O  0.05844981  0.95812213  0.79077103    -0.80600
O629        O  0.46296678  0.57320473  0.70241499    -0.80700
C630        C  0.49008203  0.56833014  0.67863919     1.09100
C631        C  0.07564461  0.98574686  0.80403906     1.08900
C632        C  0.48844650  0.60168556  0.79545438     1.09100
C633        C  0.07074630  0.00279770  0.69157368     1.09000
O634        O  0.50729699  0.94795077  0.67920288    -0.80600
O635        O  0.46374700  0.03767202  0.83672801    -0.80700
O636        O  0.42240290  0.50284073  0.72374103    -0.80700
O637        O  0.98028558  0.94667615  0.78091423    -0.80600
O638        O  0.00237369  0.97692705  0.83124157    -0.80700
O639        O  0.45646307  0.50162036  0.67335968    -0.80600
O640        O  0.02884594  0.91821085  0.72269446    -0.80600
O641        O  0.42315440  0.51984833  0.79489542    -0.80700
Co642      Co  0.49950600  0.49037946  0.70878826     1.51500
Co643      Co  0.01176042  0.02904976  0.81246000     1.51700
Co644      Co  0.44507645  0.54504667  0.75003257     1.51600
Co645      Co  0.02004398  0.96724049  0.74811764     1.51500
O646        O  0.99506355  0.52023104  0.75797803    -1.42600
C647        C  0.02186015  0.92045578  0.68605998     1.09000
C648        C  0.42892614  0.52913144  0.82902095     1.09100
C649        C  0.42455564  0.50124176  0.68789866     1.09000
C650        C  0.98575989  0.94919925  0.81714827     1.09000
O651        O  0.46105585  0.66790074  0.50331259    -0.80600
O652        O  0.99784681  0.84756245  0.96805501    -0.80700
O653        O  0.41609120  0.78645985  0.52734963    -0.80700
O654        O  0.02334747  0.73282446  0.91221521    -0.80600
O655        O  0.44120351  0.80467788  0.97476602    -0.80700
O656        O  0.47517821  0.70362699  0.94145517    -0.80700
O657        O  0.01101764  0.80093652  0.92782315    -0.80600
O658        O  0.41732939  0.71003033  0.51596138    -0.80700
C659        C  0.42718611  0.67663715  0.50861309     1.09100
C660        C  0.00221284  0.83589685  0.93378396     1.08900
C661        C  0.41290590  0.80290897  0.49472102     1.09100
C662        C  0.99549366  0.71352308  0.90735979     1.09000
O663        O  0.02785485  0.65809826  0.47037919    -0.80600
O664        O  0.98017370  0.82599296  0.54119524    -0.80700
O665        O  0.47490954  0.70237374  0.57198067    -0.80700
O666        O  0.07306308  0.78242476  0.96928027    -0.80600
O667        O  0.04250795  0.80772255  0.01610733    -0.80700
O668        O  0.52607030  0.68977492  0.53791866    -0.80600
O669        O  0.06360456  0.70771016  0.97030101    -0.80600
O670        O  0.47787144  0.77761085  0.57989088    -0.80700
Co671      Co  0.50188101  0.70023984  0.48653209     1.51500
Co672      Co  0.99083094  0.80187794  0.99280699     1.51700
Co673      Co  0.44888616  0.74458546  0.54608554     1.51600
Co674      Co  0.02778154  0.75466356  0.96278719     1.51500
O675        O  0.98616406  0.75022259  0.00622499    -1.42600
C676        C  0.05844156  0.67189040  0.96925867     1.09000
C677        C  0.48354861  0.81182238  0.57343777     1.09100
C678        C  0.50614897  0.68574007  0.56829670     1.09000
C679        C  0.07241545  0.80506918  0.99625075     1.09000
O680        O  0.28605242  0.47915165  0.57823747    -0.80600
O681        O  0.15659435  0.95601981  0.00778359    -0.80700
O682        O  0.20475936  0.53877197  0.57066892    -0.80700
O683        O  0.28101922  0.92834891  0.95783693    -0.80600
O684        O  0.20088017  0.97597722  0.56437094    -0.80700
O685        O  0.28518472  0.92505928  0.51700971    -0.80700
O686        O  0.20798819  0.92844984  0.98452879    -0.80600
O687        O  0.28095953  0.54000341  0.57810265    -0.80700
C688        C  0.29278649  0.50966217  0.59390666     1.09100
C689        C  0.17369942  0.92668721  0.99707982     1.08900
C690        C  0.19207778  0.50802218  0.58326396     1.09100
C691        C  0.29203807  0.91129861  0.98806916     1.09000
O692        O  0.32275050  0.48130589  0.96950424    -0.80600
O693        O  0.16617876  0.52955304  0.00958073    -0.80700
O694        O  0.28673593  0.56580801  0.49880040    -0.80700
O695        O  0.22432440  0.95427702  0.91229152    -0.80600
O696        O  0.18976854  0.99225757  0.94858474    -0.80700
O697        O  0.32798517  0.52771316  0.52605752    -0.80600
O698        O  0.27989847  0.00341062  0.93392543    -0.80600
O699        O  0.21148411  0.56724042  0.49165093    -0.80700
Co700      Co  0.30200955  0.47794317  0.52385283     1.51500
Co701      Co  0.20078765  0.98274688  0.00820034     1.51700
Co702      Co  0.24606573  0.55004309  0.53268608     1.51600
Co703      Co  0.24329961  0.97032361  0.96027493     1.51500
O704        O  0.25030953  0.49995744  0.00781860    -1.42600
C705        C  0.31467393  0.99790399  0.94047300     1.09000
C706        C  0.17736272  0.56074635  0.49548294     1.09100
C707        C  0.31964285  0.55892626  0.50967737     1.09000
C708        C  0.19515694  0.97445904  0.91647090     1.09000
C709        C  0.35042324  0.82683476  0.51659739    -0.21800
C710        C  0.37786553  0.82514057  0.48721555    -0.09800
C711        C  0.37558510  0.85242305  0.95854072     0.29000
C712        C  0.34502718  0.87744627  0.95608321    -0.21800
C713        C  0.31807380  0.87894999  0.98584158    -0.09900
C714        C  0.32064653  0.85253761  0.51454141     0.29000
F715        F  0.29637094  0.85462004  0.54479446    -0.20400
H716        H  0.35295991  0.80956694  0.54252010     0.17400
H717        H  0.34393281  0.89751505  0.93230416     0.17400
F718        F  0.40248427  0.85384334  0.93084205    -0.20400
C719        C  0.36200167  0.65476791  0.49993726    -0.21800
C720        C  0.39966823  0.64660315  0.50742572    -0.09800
C721        C  0.41099925  0.60917498  0.51439572     0.29000
C722        C  0.38500641  0.58089252  0.51460322    -0.21800
C723        C  0.34733612  0.58888973  0.50683142    -0.09900
C724        C  0.33607385  0.62629753  0.49930347     0.29000
F725        F  0.29682942  0.64021334  0.00044091    -0.20400
H726        H  0.34971208  0.68779231  0.00474853     0.17400
H727        H  0.39440052  0.55272015  0.52155380     0.17400
F728        F  0.44706837  0.59985915  0.52241113    -0.20400
C729        C  0.13029334  0.83525385  0.97044495    -0.21800
C730        C  0.10422731  0.83064234  0.00095801    -0.09800
C731        C  0.10581493  0.85467216  0.03248016     0.29000
C732        C  0.12984902  0.88480085  0.03172697    -0.21800
C733        C  0.15395224  0.89093267  0.00013970    -0.09900
C734        C  0.15515803  0.86493328  0.97013183     0.29000
F735        F  0.17806327  0.86988600  0.93910104    -0.20400
H736        H  0.13000481  0.81719739  0.94562481     0.17400
H737        H  0.12894894  0.90406206  0.05558423     0.17400
F738        F  0.08352327  0.84956087  0.06370676    -0.20400
C739        C  0.11056832  0.57905309  0.97699903    -0.21800
C740        C  0.14903329  0.58948770  0.48497654    -0.09800
C741        C  0.15633438  0.62779205  0.48719402     0.29000
C742        C  0.12796824  0.65442021  0.47961739    -0.21800
C743        C  0.08959555  0.64410786  0.97263293    -0.09900
C744        C  0.08249307  0.60566998  0.96985964     0.29000
F745        F  0.04814240  0.59340183  0.96097759    -0.20400
H746        H  0.10417290  0.54982650  0.97486052     0.17400
H747        H  0.13375012  0.68367418  0.48296814     0.17400
F748        F  0.19016950  0.63943526  0.49876069    -0.20400
C749        C  0.40584735  0.52375098  0.89731859    -0.21800
C750        C  0.39808857  0.52646009  0.85765250    -0.09800
C751        C  0.36363439  0.02315148  0.84638966     0.29000
C752        C  0.33522319  0.01679392  0.87352244    -0.21800
C753        C  0.34367324  0.01083118  0.91276283    -0.09900
C754        C  0.37759564  0.51591650  0.92399460     0.29000
F755        F  0.38711521  0.51083443  0.96174800    -0.20400
H756        H  0.43420116  0.52571126  0.90757150     0.17400
H757        H  0.30681737  0.01469576  0.86347958     0.17400
F758        F  0.35425346  0.02752132  0.80849798    -0.20400
C759        C  0.13325630  0.95245221  0.83039874    -0.21800
C760        C  0.10697484  0.98200657  0.83186661    -0.09800
C761        C  0.11072496  0.00917410  0.86056765     0.29000
C762        C  0.14004050  0.00695987  0.88692025    -0.21800
C763        C  0.16663554  0.97776024  0.88545793    -0.10500
C764        C  0.16307584  0.95044573  0.85679161     0.29000
F765        F  0.18757705  0.92114281  0.85502206    -0.20400
H766        H  0.13086659  0.93123951  0.80881797     0.17400
H767        H  0.14156371  0.02796379  0.90885858     0.17400
F768        F  0.08519876  0.03746249  0.86420722    -0.20400
C769        C  0.15865000  0.47707865  0.63909848    -0.21800
C770        C  0.16421065  0.50865595  0.61546481    -0.09800
C771        C  0.14268415  0.03802242  0.62042917     0.29000
C772        C  0.11278363  0.03745087  0.64658660    -0.21800
C773        C  0.10592578  0.00561545  0.66913182    -0.09900
C774        C  0.13035148  0.97438087  0.66579667     0.29000
F775        F  0.12429855  0.94276904  0.68676612    -0.20400
H776        H  0.17652896  0.45257515  0.63596197     0.17400
H777        H  0.09429551  0.06165776  0.64844731     0.17400
F778        F  0.14714339  0.06918554  0.59825576    -0.20400
C779        C  0.38345071  0.53418447  0.64067437    -0.21800
C780        C  0.39041616  0.50296946  0.66454586    -0.09800
C781        C  0.38819241  0.98025280  0.62729499     0.29000
C782        C  0.35596404  0.98164114  0.60517637    -0.21800
C783        C  0.32298202  0.51026362  0.62299343    -0.09900
C784        C  0.34982205  0.53829255  0.62068614     0.29000
F785        F  0.34460828  0.56881078  0.59749375    -0.20400
H786        H  0.40396481  0.55573787  0.63792974     0.17400
H787        H  0.35659651  0.96899797  0.57685524     0.17400
F788        F  0.41934575  0.96303657  0.61303902    -0.20400
C789        C  0.02203456  0.65679359  0.82088021    -0.21800
C790        C  0.48735094  0.63760764  0.81544792    -0.09800
C791        C  0.45442515  0.64972235  0.83450596     0.29000
C792        C  0.45611464  0.67539236  0.86448565    -0.21800
C793        C  0.99124167  0.69402226  0.87052920    -0.09900
C794        C  0.02324457  0.68494263  0.84815274     0.29000
F795        F  0.05675513  0.70004328  0.85555282    -0.20400
H796        H  0.04757296  0.64771268  0.80665384     0.17400
H797        H  0.43117527  0.68208151  0.88101612     0.17400
F798        F  0.42131327  0.63383306  0.82724765    -0.20400
C799        C  0.99261089  0.88157826  0.83352220    -0.21800
C800        C  0.97965946  0.91741707  0.84364657    -0.09800
C801        C  0.47122245  0.92131141  0.88281590     0.29000
C802        C  0.47832131  0.89475614  0.91157253    -0.21800
C803        C  0.99334199  0.86250674  0.90160973    -0.09900
C804        C  0.99940717  0.85415735  0.86231054     0.29000
F805        F  0.01360272  0.82042240  0.85184832    -0.20400
H806        H  0.00028796  0.87573532  0.80378271     0.17400
H807        H  0.47180637  0.90206084  0.94122385     0.17400
F808        F  0.45788083  0.95536804  0.89305752    -0.20400
C809        C  0.51388813  0.86965732  0.59501086    -0.21800
C810        C  0.49748663  0.83569775  0.60486704    -0.09800
C811        C  0.99749054  0.82806966  0.64492529     0.29000
C812        C  0.00812406  0.85411760  0.67245957    -0.21800
C813        C  0.02310742  0.88816485  0.66037776    -0.09900
C814        C  0.52502464  0.89393901  0.62366737     0.29000
F815        F  0.54001026  0.92684567  0.61259178    -0.20400
H816        H  0.51754725  0.87785855  0.56489650     0.17400
H817        H  0.00195441  0.84895977  0.70282099     0.17400
F818        F  0.98115025  0.79629339  0.65725797    -0.20400
C819        C  0.99539634  0.63653911  0.66496231    -0.21800
C820        C  0.50041949  0.59876245  0.65151302    -0.09800
C821        C  0.51522805  0.59132158  0.61436558     0.29000
C822        C  0.52237738  0.62064359  0.58821056    -0.21800
C823        C  0.51492304  0.65765739  0.59874902    -0.09900
C824        C  0.00309281  0.66581197  0.63935399     0.29000
F825        F  0.99511075  0.70122423  0.65049312    -0.20400
H826        H  0.98432617  0.64282042  0.69346690     0.17400
H827        H  0.53031043  0.61423745  0.55866827     0.17400
F828        F  0.52003503  0.55575557  0.60222607    -0.20400
O829        O  0.00860836  0.03631160  0.17727265    -0.80600
O830        O  0.56083287  0.51664889  0.29328346    -0.80700
O831        O  0.95847925  0.09056857  0.27894313    -0.80700
O832        O  0.56558948  0.48178824  0.22118128    -0.80600
O833        O  0.51727935  0.08439748  0.29923776    -0.80700
O834        O  0.54059748  0.02109758  0.18034706    -0.80700
O835        O  0.55725667  0.45653826  0.29082004    -0.80600
O836        O  0.96296539  0.07302772  0.20207299    -0.80700
C837        C  0.99011879  0.06755591  0.17854775     1.09100
C838        C  0.57422525  0.48500817  0.30232972     1.08900
C839        C  0.98813090  0.10257923  0.29374240     1.09100
C840        C  0.57034370  0.49829994  0.18896434     1.09000
O841        O  0.00918960  0.45079225  0.17133445    -0.80600
O842        O  0.96196259  0.54074477  0.33914600    -0.80700
O843        O  0.92084529  0.00472361  0.22289799    -0.80700
O844        O  0.47985077  0.44203736  0.28153558    -0.80600
O845        O  0.50150989  0.47450413  0.33092551    -0.80700
O846        O  0.95533623  0.99982621  0.17288811    -0.80600
O847        O  0.52979998  0.41510418  0.22540777    -0.80600
O848        O  0.92380852  0.01987686  0.29428602    -0.80700
Co849      Co  0.99835378  0.98942061  0.20857988     1.51500
Co850      Co  0.50946484  0.52657466  0.31044615     1.51700
Co851      Co  0.94484825  0.04544581  0.24946389     1.51600
Co852      Co  0.51844335  0.46321780  0.24840071     1.51500
O853        O  0.49720326  0.02354258  0.25688881    -1.42600
C854        C  0.51659692  0.41935386  0.19123282     1.09000
C855        C  0.92968189  0.02866942  0.32853021     1.09100
C856        C  0.92329694  0.00194068  0.18716700     1.09000
C857        C  0.48506302  0.44613866  0.31760847     1.09000
O858        O  0.96126296  0.16811706  0.00811519    -0.80600
O859        O  0.49840000  0.34746958  0.46900890    -0.80700
O860        O  0.91636300  0.28657849  0.03142038    -0.80700
O861        O  0.52103826  0.23261055  0.41348371    -0.80600
O862        O  0.93769132  0.30351418  0.47245132    -0.80700
O863        O  0.97430781  0.20493136  0.43824912    -0.80700
O864        O  0.51087882  0.30025571  0.42913263    -0.80600
O865        O  0.91766395  0.21033388  0.02114594    -0.80700
C866        C  0.92745448  0.17694777  0.01399330     1.09100
C867        C  0.50226220  0.33524928  0.43492819     1.08900
C868        C  0.91246539  0.30206107  0.99835815     1.09100
C869        C  0.49342547  0.21278778  0.40926518     1.09000
O870        O  0.53114060  0.15997873  0.96751938    -0.80600
O871        O  0.47702064  0.32801055  0.03814958    -0.80700
O872        O  0.97589996  0.20304529  0.07642132    -0.80700
O873        O  0.57288006  0.28223778  0.46879170    -0.80600
O874        O  0.54286268  0.30713401  0.51613843    -0.80700
O875        O  0.02677561  0.19110181  0.04182707    -0.80600
O876        O  0.56430418  0.20745976  0.47079521    -0.80600
O877        O  0.97916063  0.27824241  0.08262378    -0.80700
Co878      Co  0.00220192  0.20038779  0.99065988     1.51500
Co879      Co  0.49092471  0.30210352  0.49356542     1.51700
Co880      Co  0.94957757  0.24497978  0.05028653     1.51600
Co881      Co  0.52767780  0.25407358  0.46376187     1.51500
O882        O  0.48577891  0.25072379  0.50677474    -1.42600
C883        C  0.55938426  0.17155952  0.47093829     1.09000
C884        C  0.98425233  0.31227216  0.07497150     1.09100
C885        C  0.00725368  0.18675439  0.07229434     1.09000
C886        C  0.57237983  0.30495299  0.49566914     1.09000
O887        O  0.78355370  0.97710815  0.07443815    -0.80600
O888        O  0.65403839  0.45774808  0.50416204    -0.80700
O889        O  0.70452215  0.03800263  0.06842084    -0.80700
O890        O  0.77937882  0.42968955  0.45660336    -0.80600
O891        O  0.70112443  0.47624298  0.06762011    -0.80700
O892        O  0.78472068  0.42451735  0.02183025    -0.80700
O893        O  0.70604241  0.42989350  0.48281455    -0.80600
O894        O  0.78060453  0.03767525  0.07825757    -0.80700
C895        C  0.79163878  0.00610551  0.09200433     1.09100
C896        C  0.67147734  0.42828548  0.49438260     1.08900
C897        C  0.69165614  0.00715640  0.08010956     1.09100
C898        C  0.79013291  0.41297199  0.48716853     1.09000
O899        O  0.82484584  0.97895705  0.46971854    -0.80600
O900        O  0.66789113  0.02821659  0.50952546    -0.80700
O901        O  0.78754600  0.06656425  0.99961033    -0.80700
O902        O  0.72284507  0.45494047  0.41055882    -0.80600
O903        O  0.68815346  0.49395400  0.44552751    -0.80700
O904        O  0.82796943  0.02747133  0.02639183    -0.80600
O905        O  0.77716368  0.50501741  0.43231783    -0.80600
O906        O  0.71242450  0.06874680  0.99129400    -0.80700
Co907      Co  0.80181022  0.97794835  0.02125963     1.51500
Co908      Co  0.69811162  0.48469278  0.50532194     1.51700
Co909      Co  0.74641991  0.04989348  0.03215954     1.51600
Co910      Co  0.74118931  0.47158021  0.45854671     1.51500
O911        O  0.75213627  0.99754423  0.50763808    -1.42600
C912        C  0.81185735  0.50017942  0.43933956     1.09000
C913        C  0.67816718  0.06209253  0.99364298     1.09100
C914        C  0.82009127  0.05932334  0.01121837     1.09000
C915        C  0.69395972  0.47564946  0.41381589     1.09000
C916        C  0.84957435  0.32530995  0.02016470    -0.21800
C917        C  0.87744292  0.32443908  0.99113904    -0.09800
C918        C  0.86869734  0.34740288  0.45535129     0.29000
C919        C  0.83857982  0.37322831  0.45336247    -0.21800
C920        C  0.81566955  0.37986047  0.48598209    -0.09900
C921        C  0.81984531  0.35117535  0.01849451     0.29000
F922        F  0.79495321  0.35232136  0.04825684    -0.20400
H923        H  0.85170121  0.30715925  0.04547013     0.17400
H924        H  0.83463912  0.38969173  0.42705317     0.17400
F925        F  0.89122976  0.34317097  0.42395942    -0.20400
C926        C  0.86305223  0.15494849  0.00181729    -0.21800
C927        C  0.89978036  0.14717054  0.01342928    -0.09800
C928        C  0.91015816  0.11037346  0.02428864     0.29000
C929        C  0.88432392  0.08196901  0.02304219    -0.21800
C930        C  0.84771530  0.08942224  0.01059092    -0.09900
C931        C  0.83724101  0.12646040  0.00015738     0.29000
F932        F  0.79820586  0.13587564  0.49843902    -0.20400
H933        H  0.85039861  0.18399242  0.50009683     0.17400
H934        H  0.89299313  0.05411239  0.03217889     0.17400
F935        F  0.94505608  0.10196389  0.03725984    -0.20400
C936        C  0.62951242  0.33583844  0.46899054    -0.21800
C937        C  0.60361072  0.33123037  0.49963831    -0.09800
C938        C  0.60446276  0.35602177  0.53054276     0.29000
C939        C  0.62781147  0.38661336  0.52922575    -0.21800
C940        C  0.65195312  0.39251247  0.49768085    -0.09900
C941        C  0.65372066  0.36604917  0.46811963     0.29000
F942        F  0.67657647  0.37094531  0.43703661    -0.20400
H943        H  0.62962186  0.31729377  0.44455570     0.17400
H944        H  0.62642238  0.40633658  0.55265900     0.17400
F945        F  0.58199771  0.35124153  0.56167418    -0.20400
C946        C  0.61270670  0.07871465  0.47616551    -0.21800
C947        C  0.65051270  0.09168228  0.98345592    -0.09800
C948        C  0.65545902  0.12871033  0.99486769     0.29000
C949        C  0.62811809  0.15626159  0.98656986    -0.21800
C950        C  0.59098701  0.14382206  0.47352681    -0.09900
C951        C  0.58447603  0.10543384  0.46908286     0.29000
F952        F  0.55049921  0.09337003  0.45853579    -0.20400
H953        H  0.60662592  0.04951092  0.47275792     0.17400
H954        H  0.63141437  0.18397213  0.99747372     0.17400
F955        F  0.68548341  0.13772010  0.01628894    -0.20400
C956        C  0.90591585  0.02664329  0.39702362    -0.21800
C957        C  0.89911530  0.02408640  0.35720739    -0.09800
C958        C  0.86192844  0.52403228  0.34621537     0.29000
C959        C  0.83312246  0.51747258  0.37263760    -0.21800
C960        C  0.84067705  0.51388729  0.41225798    -0.09900
C961        C  0.87785037  0.01872199  0.42398099     0.29000
F962        F  0.88623175  0.01917003  0.46221560    -0.20400
H963        H  0.93337661  0.03327919  0.40737317     0.17400
H964        H  0.80528356  0.51316932  0.36185975     0.17400
F965        F  0.85351876  0.52565664  0.30788033    -0.20400
C966        C  0.63094494  0.45155266  0.32983775    -0.21800
C967        C  0.60654970  0.48267393  0.32886594    -0.09800
C968        C  0.61261923  0.51208778  0.35455885     0.29000
C969        C  0.64198443  0.51004872  0.38080264    -0.21800
C970        C  0.66624339  0.47893524  0.38219081    -0.10500
C971        C  0.66080253  0.44974428  0.35604502     0.29000
F972        F  0.68319719  0.41876617  0.35699991    -0.20400
H973        H  0.62677112  0.42856720  0.31045552     0.17400
H974        H  0.64533464  0.53278901  0.40072866     0.17400
F975        F  0.58914085  0.54228894  0.35566819    -0.20400
C976        C  0.66094342  0.97917777  0.13925512    -0.21800
C977        C  0.66336621  0.00796224  0.11148672    -0.09800
C978        C  0.64066979  0.53607195  0.12012199     0.29000
C979        C  0.61123287  0.53477628  0.14634759    -0.21800
C980        C  0.60715457  0.50394928  0.17129810    -0.09900
C981        C  0.63505564  0.47584340  0.17223596     0.29000
F982        F  0.63204281  0.44609984  0.19669219    -0.20400
H983        H  0.68073073  0.95593121  0.13884117     0.17400
H984        H  0.59004063  0.55679204  0.14524344     0.17400
F985        F  0.64115357  0.56474323  0.09393841    -0.20400
C986        C  0.86161058  0.03035053  0.16932654    -0.21800
C987        C  0.88917861  0.00237639  0.16363835    -0.09800
C988        C  0.88732672  0.48021851  0.13190674     0.29000
C989        C  0.85514245  0.48217076  0.10957986    -0.21800
C990        C  0.82272241  0.00351926  0.12009321    -0.09900
C991        C  0.82892850  0.03142782  0.14717602     0.29000
F992        F  0.80371605  0.05978330  0.15191784    -0.20400
H993        H  0.86591650  0.05196062  0.19027822     0.17400
H994        H  0.85589430  0.47002951  0.08101699     0.17400
F995        F  0.91825081  0.46270112  0.11759470    -0.20400
C996        C  0.51845258  0.16113566  0.31921076    -0.21800
C997        C  0.98632566  0.13861918  0.31343455    -0.09800
C998        C  0.95378038  0.14895283  0.33417053     0.29000
C999        C  0.95532068  0.17533505  0.36336493    -0.21800
C1000       C  0.48819321  0.19461797  0.37188548    -0.09900
C1001       C  0.51945706  0.18823963  0.34751686     0.29000
F1002       F  0.55245948  0.20477220  0.35388521    -0.20400
H1003       H  0.54373235  0.15391468  0.30346631     0.17400
H1004       H  0.93102129  0.18032377  0.38146637     0.17400
F1005       F  0.92158044  0.13051049  0.32956529    -0.20400
C1006       C  0.49192206  0.37920995  0.33469362    -0.21800
C1007       C  0.47901085  0.41507865  0.34456272    -0.09800
C1008       C  0.96930559  0.42335148  0.38182002     0.29000
C1009       C  0.97605548  0.39638349  0.41034729    -0.21800
C1010       C  0.49286712  0.36119154  0.40275355    -0.09900
C1011       C  0.49894196  0.35227588  0.36367389     0.29000
F1012       F  0.51353657  0.31857961  0.35362211    -0.20400
H1013       H  0.49959703  0.37305246  0.30502437     0.17400
H1014       H  0.97022031  0.40375181  0.44012100     0.17400
F1015       F  0.95699239  0.45770589  0.39255253    -0.20400
C1016       C  0.01491418  0.37055264  0.09242495    -0.21800
C1017       C  0.99977720  0.33668612  0.10452339    -0.09800
C1018       C  0.49463702  0.32827567  0.14299420     0.29000
C1019       C  0.50477553  0.35319397  0.17203339    -0.21800
C1020       C  0.51583985  0.38933136  0.16213247    -0.09900
C1021       C  0.02741331  0.39561377  0.11934268     0.29000
F1022       F  0.04074867  0.42864931  0.10633749    -0.20400
H1023       H  0.01652191  0.37808224  0.06192667     0.17400
H1024       H  0.50181056  0.34501369  0.20223207     0.17400
F1025       F  0.48265990  0.29409871  0.15380287    -0.20400
C1026       C  0.50083536  0.13873424  0.16321132    -0.21800
C1027       C  0.00151663  0.09823315  0.15253197    -0.09800
C1028       C  0.01560468  0.09149832  0.11502611     0.29000
C1029       C  0.02315873  0.12138819  0.08985195    -0.21800
C1030       C  0.01659582  0.15814617  0.10176618    -0.09900
C1031       C  0.50868171  0.16757522  0.13693093     0.29000
F1032       F  0.50493873  0.20338234  0.14866455    -0.20400
H1033       H  0.49302404  0.14546014  0.19271364     0.17400
H1034       H  0.03035980  0.11573742  0.05993346     0.17400
F1035       F  0.01901646  0.05626067  0.10158332    -0.20400
O1036       O  0.01065231  0.03809428  0.67813788    -0.80600
O1037       O  0.56213891  0.51737690  0.79724591    -0.80700
O1038       O  0.96020392  0.09076681  0.77920845    -0.80700
O1039       O  0.56857225  0.48381748  0.72100991    -0.80600
O1040       O  0.51971741  0.07710747  0.79340294    -0.80700
O1041       O  0.54643532  0.01195960  0.67462920    -0.80700
O1042       O  0.55792520  0.45772609  0.79041225    -0.80600
O1043       O  0.96365358  0.07319792  0.70251675    -0.80700
C1044       C  0.99121005  0.06878699  0.67928819     1.09100
C1045       C  0.57476986  0.48506999  0.80470319     1.08900
C1046       C  0.99011600  0.10238924  0.79388834     1.09100
C1047       C  0.57004280  0.50387224  0.69103217     1.09000
O1048       O  0.00833338  0.45275712  0.67108841    -0.80600
O1049       O  0.96145606  0.54031869  0.83999928    -0.80700
O1050       O  0.92249108  0.00448990  0.72365522    -0.80700
O1051       O  0.47995673  0.44632832  0.77790469    -0.80600
O1052       O  0.50066677  0.47512546  0.82982606    -0.80700
O1053       O  0.95697531  0.00075509  0.67338858    -0.80600
O1054       O  0.53025647  0.41885751  0.72140091    -0.80600
O1055       O  0.92494265  0.02040226  0.79518691    -0.80700
Co1056     Co  0.00047768  0.99061035  0.70872385     1.51500
Co1057     Co  0.51027559  0.52778037  0.81290101     1.51700
Co1058     Co  0.94602004  0.04559282  0.75007813     1.51600
Co1059     Co  0.52042993  0.46770647  0.74702959     1.51500
O1060       O  0.49605468  0.01219246  0.75556316    -1.42600
C1061       C  0.52190967  0.42099485  0.68512339     1.09000
C1062       C  0.93056629  0.03035773  0.82911825     1.09100
C1063       C  0.92493340  0.00201962  0.68788021     1.09000
C1064       C  0.48441651  0.44787715  0.81430535     1.09000
O1065       O  0.95923518  0.16943130  0.50719652    -0.80600
O1066       O  0.50014887  0.34739859  0.96371734    -0.80700
O1067       O  0.91390737  0.28769445  0.52910547    -0.80700
O1068       O  0.52455086  0.23211982  0.90814929    -0.80600
O1069       O  0.93910072  0.30093918  0.97395057    -0.80700
O1070       O  0.97595133  0.20425745  0.93909434    -0.80700
O1071       O  0.51184613  0.30037418  0.92351464    -0.80600
O1072       O  0.91519456  0.21141616  0.51910246    -0.80700
C1073       C  0.92530661  0.17800382  0.51248591     1.09100
C1074       C  0.50329027  0.33528812  0.92943475     1.08900
C1075       C  0.91073670  0.30426318  0.49654666     1.09100
C1076       C  0.49775272  0.21109338  0.90431670     1.09000
O1077       O  0.52661112  0.15944011  0.47277749    -0.80600
O1078       O  0.47483136  0.32688998  0.54190282    -0.80700
O1079       O  0.97256954  0.20451028  0.57523379    -0.80700
O1080       O  0.57422627  0.28356570  0.96495916    -0.80600
O1081       O  0.54383261  0.30652548  0.01306093    -0.80700
O1082       O  0.02415591  0.19271837  0.54175748    -0.80600
O1083       O  0.56712483  0.20955493  0.96529760    -0.80600
O1084       O  0.97538710  0.27976478  0.58166527    -0.80700
Co1085     Co  0.00024466  0.20149385  0.49008968     1.51500
Co1086     Co  0.49257473  0.30218363  0.98965976     1.51700
Co1087     Co  0.94660976  0.24624462  0.54862498     1.51600
Co1088     Co  0.52943839  0.25495213  0.95844797     1.51500
O1089       O  0.48815746  0.25030568  0.00233485    -1.42600
C1090       C  0.56331804  0.17356942  0.96499262     1.09000
C1091       C  0.98031513  0.31387379  0.57419794     1.09100
C1092       C  0.00417078  0.18855027  0.57196783     1.09000
C1093       C  0.57369076  0.30451073  0.99338314     1.09000
O1094       O  0.78476171  0.97650050  0.57644276    -0.80600
O1095       O  0.65552396  0.45442584  0.01006186    -0.80700
O1096       O  0.70564234  0.03503103  0.57074857    -0.80700
O1097       O  0.78013993  0.42690882  0.95948876    -0.80600
O1098       O  0.69887307  0.47922460  0.56271566    -0.80700
O1099       O  0.78325609  0.42849462  0.51896971    -0.80700
O1100       O  0.70740546  0.42738417  0.98687909    -0.80600
O1101       O  0.78140110  0.03699548  0.57945577    -0.80700
C1102       C  0.79264339  0.00571291  0.59370411     1.09100
C1103       C  0.67326071  0.42532194  0.99959614     1.08900
C1104       C  0.69395667  0.00364826  0.58240177     1.09100
C1105       C  0.79115400  0.40959026  0.98962135     1.09000
O1106       O  0.82391073  0.98063734  0.96783060    -0.80600
O1107       O  0.66774847  0.03062293  0.00630333    -0.80700
O1108       O  0.78685132  0.06557883  0.50071328    -0.80700
O1109       O  0.72293162  0.45287659  0.91415533    -0.80600
O1110       O  0.68806400  0.49050996  0.95049883    -0.80700
O1111       O  0.82818088  0.02709975  0.52726187    -0.80600
O1112       O  0.77850051  0.50209227  0.93579826    -0.80600
O1113       O  0.71131242  0.06711644  0.49351049    -0.80700
Co1114     Co  0.80278462  0.97700234  0.52311866     1.51500
Co1115     Co  0.69923178  0.48159294  0.01016297     1.51700
Co1116     Co  0.74645070  0.04831840  0.53376999     1.51600
Co1117     Co  0.74214464  0.46896415  0.96209695     1.51500
O1118       O  0.75133411  0.99911520  0.00602483    -1.42600
C1119       C  0.81326296  0.49682595  0.94254125     1.09000
C1120       C  0.67718418  0.06004935  0.49682809     1.09100
C1121       C  0.81957557  0.05883930  0.51211865     1.09000
C1122       C  0.69361056  0.47285391  0.91830519     1.09000
C1123       C  0.85112131  0.33217710  0.52142412    -0.21800
C1124       C  0.87609562  0.32742845  0.49005284    -0.09800
C1125       C  0.87279973  0.34808781  0.95844625     0.29000
C1126       C  0.84261085  0.37373441  0.95655223    -0.21800
C1127       C  0.81678832  0.37662063  0.98730238    -0.09900
C1128       C  0.82156880  0.35805035  0.51959807     0.29000
F1129       F  0.79979830  0.36289379  0.55153110    -0.20400
H1130       H  0.85539382  0.31710231  0.54854014     0.17400
H1131       H  0.84095657  0.39314361  0.93222207     0.17400
F1132       F  0.89844172  0.34810310  0.92942386    -0.20400
C1133       C  0.86020238  0.15559879  0.50527214    -0.21800
C1134       C  0.89802817  0.14779462  0.51223253    -0.09800
C1135       C  0.90978640  0.11055631  0.51948385     0.29000
C1136       C  0.88421729  0.08192539  0.51946387    -0.21800
C1137       C  0.84656969  0.08943364  0.51127065    -0.09900
C1138       C  0.83466664  0.12680980  0.50458309     0.29000
F1139       F  0.80190942  0.13552424  0.98900288    -0.20400
H1140       H  0.85441752  0.18306630  0.99356276     0.17400
H1141       H  0.89399779  0.05379613  0.52605984     0.17400
F1142       F  0.94592944  0.10173280  0.52765164    -0.20400
C1143       C  0.63381362  0.33285017  0.97235864    -0.21800
C1144       C  0.60547316  0.32909028  0.00058876    -0.09800
C1145       C  0.60446861  0.35369110  0.03177420     0.29000
C1146       C  0.62832262  0.38377060  0.03238820    -0.21800
C1147       C  0.65436988  0.38937232  0.00250317    -0.09900
C1148       C  0.65831447  0.36263581  0.97341516     0.29000
F1149       F  0.68342227  0.36709772  0.94421170    -0.20400
H1150       H  0.63546408  0.31424076  0.94799365     0.17400
H1151       H  0.62538757  0.40367311  0.05554729     0.17400
F1152       F  0.57905905  0.34993510  0.06061696    -0.20400
C1153       C  0.61837182  0.08283386  0.96308769    -0.21800
C1154       C  0.64824940  0.08920364  0.48770019    -0.09800
C1155       C  0.65507417  0.12746862  0.49201420     0.29000
C1156       C  0.62671076  0.15440885  0.48491697    -0.21800
C1157       C  0.59563888  0.14721269  0.96656212    -0.09900
C1158       C  0.59157246  0.11041068  0.95402032     0.29000
F1159       F  0.56104978  0.10076871  0.93375130    -0.20400
H1160       H  0.61385286  0.05467266  0.95454706     0.17400
H1161       H  0.63236027  0.18349101  0.48969501     0.17400
F1162       F  0.68854049  0.13874394  0.50500588    -0.20400
C1163       C  0.90633998  0.02805237  0.89742243    -0.21800
C1164       C  0.89948285  0.02778516  0.85749267    -0.09800
C1165       C  0.86135632  0.52469308  0.84889604     0.29000
C1166       C  0.83331653  0.51696632  0.87597637    -0.21800
C1167       C  0.84211732  0.51013610  0.91498314    -0.09900
C1168       C  0.87780543  0.02034475  0.92392415     0.29000
F1169       F  0.88614911  0.01873736  0.96222121    -0.20400
H1170       H  0.93419508  0.03240196  0.90812306     0.17400
H1171       H  0.80488864  0.51472905  0.86604448     0.17400
F1172       F  0.85154881  0.52989784  0.81121641    -0.20400
C1173       C  0.63350844  0.45269710  0.82999691    -0.21800
C1174       C  0.60577783  0.48078992  0.83294537    -0.09800
C1175       C  0.60792428  0.50632621  0.86342591     0.29000
C1176       C  0.63703837  0.50395501  0.89000168    -0.21800
C1177       C  0.66508283  0.47624701  0.88715971    -0.10500
C1178       C  0.66314490  0.45053521  0.85666262     0.29000
F1179       F  0.68923518  0.42280251  0.85315865    -0.20400
H1180       H  0.63244850  0.43270764  0.80682310     0.17400
H1181       H  0.63730442  0.52386340  0.91329702     0.17400
F1182       F  0.58106743  0.53313595  0.86839706    -0.20400
C1183       C  0.66146169  0.96964272  0.63665478    -0.21800
C1184       C  0.66772468  0.00276126  0.61559934    -0.09800
C1185       C  0.63722130  0.53894164  0.61512725     0.29000
C1186       C  0.60810428  0.53807069  0.64214376    -0.21800
C1187       C  0.60456805  0.50775809  0.66781993    -0.09900
C1188       C  0.63136892  0.47836962  0.66648700     0.29000
F1189       F  0.62822745  0.44792927  0.69000620    -0.20400
H1190       H  0.67763491  0.94459186  0.63037342     0.17400
H1191       H  0.58757688  0.56067093  0.64218672     0.17400
F1192       F  0.63821425  0.56797260  0.58945393    -0.20400
C1193       C  0.86635457  0.03373284  0.66554270    -0.21800
C1194       C  0.89070093  0.00248223  0.66458759    -0.09800
C1195       C  0.88448618  0.47928092  0.63476849     0.29000
C1196       C  0.85178841  0.48013136  0.61299225    -0.21800
C1197       C  0.82327673  0.00359279  0.62252684    -0.09900
C1198       C  0.83315189  0.03460551  0.64425738     0.29000
F1199       F  0.81120848  0.06591666  0.64433606    -0.20400
H1200       H  0.87354497  0.05783788  0.68218112     0.17400
H1201       H  0.84952091  0.46062855  0.58953445     0.17400
F1202       F  0.91167680  0.45356362  0.62682492    -0.20400
C1203       C  0.52498908  0.15120729  0.81989921    -0.21800
C1204       C  0.98898960  0.13824732  0.81372118    -0.09800
C1205       C  0.95613154  0.14980561  0.83322598     0.29000
C1206       C  0.95774677  0.17559756  0.86294110    -0.21800
C1207       C  0.49406284  0.19039865  0.86795578    -0.09900
C1208       C  0.52652750  0.17921261  0.84742235     0.29000
F1209       F  0.56046452  0.19229145  0.85680184    -0.20400
H1210       H  0.55071567  0.14070105  0.80714142     0.17400
H1211       H  0.93292135  0.18183786  0.87983585     0.17400
F1212       F  0.92326669  0.13307951  0.82688901    -0.20400
C1213       C  0.49359661  0.38054876  0.82932542    -0.21800
C1214       C  0.47782369  0.41531545  0.83932523    -0.09800
C1215       C  0.96846077  0.42152243  0.88113217     0.29000
C1216       C  0.97519791  0.39440126  0.90953480    -0.21800
C1217       C  0.49298171  0.36105955  0.89717195    -0.09900
C1218       C  0.50109305  0.35337469  0.85810091     0.29000
F1219       F  0.51836227  0.32090509  0.84802484    -0.20400
H1220       H  0.50319227  0.37570921  0.79996645     0.17400
H1221       H  0.96853598  0.40136357  0.93924170     0.17400
F1222       F  0.95532641  0.45545674  0.89206723    -0.20400
C1223       C  0.01075452  0.37204249  0.59211822    -0.21800
C1224       C  0.99455903  0.33864156  0.60410110    -0.09800
C1225       C  0.49923567  0.32787689  0.64464487     0.29000
C1226       C  0.51126517  0.35382528  0.67167579    -0.21800
C1227       C  0.52297253  0.38903132  0.65901279    -0.09900
C1228       C  0.02393924  0.39669787  0.61904877     0.29000
F1229       F  0.03902261  0.42895310  0.60607862    -0.20400
H1230       H  0.01315073  0.37932853  0.56161354     0.17400
H1231       H  0.50875934  0.34749709  0.70237337     0.17400
F1232       F  0.48691134  0.29448208  0.65764330    -0.20400
C1233       C  0.49133317  0.14215108  0.66527579    -0.21800
C1234       C  0.00153843  0.10014155  0.65344026    -0.09800
C1235       C  0.01878551  0.09439783  0.61711907     0.29000
C1236       C  0.02466812  0.12462602  0.59178099    -0.21800
C1237       C  0.01346861  0.16076082  0.60239219    -0.09900
C1238       C  0.50144589  0.17134780  0.64062780     0.29000
F1239       F  0.49487881  0.20688946  0.65207280    -0.20400
H1240       H  0.48050196  0.14806759  0.69395836     0.17400
H1241       H  0.03456391  0.11931674  0.56260770     0.17400
F1242       F  0.02706941  0.05948137  0.60474968    -0.20400
O1243       O  0.00611657  0.53604396  0.17777648    -0.80600
O1244       O  0.56303861  0.02143386  0.29642891    -0.80700
O1245       O  0.95828265  0.58913313  0.27963321    -0.80700
O1246       O  0.56916281  0.98596471  0.22073375    -0.80600
O1247       O  0.51468772  0.57897604  0.29392578    -0.80700
O1248       O  0.54236154  0.50948867  0.17083849    -0.80700
O1249       O  0.55923184  0.96157477  0.29000645    -0.80600
O1250       O  0.95894627  0.57037726  0.20289935    -0.80700
C1251       C  0.98575071  0.56611918  0.17873450     1.09100
C1252       C  0.57626749  0.98922498  0.30338359     1.08900
C1253       C  0.98872965  0.60082621  0.29328897     1.09100
C1254       C  0.57115611  0.00643851  0.19111549     1.09000
O1255       O  0.00774915  0.95000083  0.17159853    -0.80600
O1256       O  0.96110511  0.04116640  0.33760795    -0.80700
O1257       O  0.92043639  0.50070761  0.22698138    -0.80700
O1258       O  0.48146103  0.94888226  0.27984676    -0.80600
O1259       O  0.50286197  0.97879699  0.33071460    -0.80700
O1260       O  0.95380434  0.49715650  0.17596699    -0.80600
O1261       O  0.53105989  0.92144958  0.22185188    -0.80600
O1262       O  0.92432140  0.51789625  0.29739508    -0.80700
Co1263     Co  0.99864303  0.48877208  0.20943012     1.51500
Co1264     Co  0.51128382  0.03142040  0.31273742     1.51700
Co1265     Co  0.94362905  0.54306303  0.25158339     1.51600
Co1266     Co  0.52102601  0.97036255  0.24741114     1.51500
O1267       O  0.49324144  0.51343385  0.25649213    -1.42600
C1268       C  0.52403863  0.92388628  0.18524052     1.09000
C1269       C  0.93008952  0.52902345  0.33077936     1.09100
C1270       C  0.92210466  0.49739540  0.19126503     1.09000
C1271       C  0.48683813  0.95094356  0.31614301     1.09000
O1272       O  0.95859368  0.66909272  0.00345067    -0.80600
O1273       O  0.49956401  0.84680602  0.46558838    -0.80700
O1274       O  0.91339784  0.78715939  0.02737653    -0.80700
O1275       O  0.52112944  0.73185909  0.40810926    -0.80600
O1276       O  0.94227416  0.80361904  0.47298973    -0.80700
O1277       O  0.97617060  0.70415330  0.43738062    -0.80700
O1278       O  0.51101508  0.80064710  0.42437189    -0.80600
O1279       O  0.91448500  0.71082204  0.01556519    -0.80700
C1280       C  0.92469311  0.67744768  0.00863667     1.09100
C1281       C  0.50307384  0.83560233  0.43103098     1.08900
C1282       C  0.91115384  0.80352896  0.99469737     1.09100
C1283       C  0.49392531  0.71129732  0.40482880     1.09000
O1284       O  0.52676852  0.65854906  0.97683265    -0.80600
O1285       O  0.47875101  0.82818856  0.04245447    -0.80700
O1286       O  0.97016993  0.70279919  0.07328351    -0.80700
O1287       O  0.57307533  0.78180117  0.46385527    -0.80600
O1288       O  0.54448926  0.80547611  0.51281609    -0.80700
O1289       O  0.02214463  0.68978777  0.04070509    -0.80600
O1290       O  0.56458874  0.70800567  0.46472782    -0.80600
O1291       O  0.97312595  0.77802862  0.08171811    -0.80700
Co1292     Co  0.99990241  0.70143441  0.98869688     1.51500
Co1293     Co  0.49251762  0.80107766  0.49073275     1.51700
Co1294     Co  0.94529225  0.74519538  0.04686552     1.51600
Co1295     Co  0.52765145  0.75400125  0.45842807     1.51500
O1296       O  0.48772621  0.74926986  0.50354585    -1.42600
C1297       C  0.56036246  0.67205484  0.46455119     1.09000
C1298       C  0.97915034  0.81210092  0.07489741     1.09100
C1299       C  0.00119654  0.68567546  0.07029563     1.09000
C1300       C  0.57356652  0.80330600  0.49181670     1.09000
O1301       O  0.78285628  0.47586272  0.07839895    -0.80600
O1302       O  0.65585953  0.95399172  0.50427754    -0.80700
O1303       O  0.70608342  0.53681733  0.07381161    -0.80700
O1304       O  0.78147471  0.92693280  0.45699502    -0.80600
O1305       O  0.69890117  0.97756419  0.06161093    -0.80700
O1306       O  0.78431006  0.92637782  0.01674529    -0.80700
O1307       O  0.70828885  0.92657999  0.48343830    -0.80600
O1308       O  0.78168275  0.53640125  0.08186910    -0.80700
C1309       C  0.79133852  0.50457942  0.09599747     1.09100
C1310       C  0.67366418  0.92473781  0.49456278     1.08900
C1311       C  0.69424425  0.50583309  0.08625468     1.09100
C1312       C  0.79268411  0.91013793  0.48732225     1.09000
O1313       O  0.82284417  0.48122875  0.46882817    -0.80600
O1314       O  0.66716972  0.53179291  0.50801186    -0.80700
O1315       O  0.78677599  0.56434796  0.00227361    -0.80700
O1316       O  0.72432506  0.95191979  0.41119705    -0.80600
O1317       O  0.69015534  0.99136243  0.44628728    -0.80700
O1318       O  0.82795739  0.52634708  0.02949337    -0.80600
O1319       O  0.77875991  0.00181175  0.43296361    -0.80600
O1320       O  0.71161496  0.56722420  0.99615487    -0.80700
Co1321     Co  0.80194391  0.47631903  0.02559334     1.51500
Co1322     Co  0.69970730  0.98134899  0.50581501     1.51700
Co1323     Co  0.74675754  0.54846415  0.03628192     1.51600
Co1324     Co  0.74294076  0.96839319  0.45924611     1.51500
O1325       O  0.75059964  0.50078351  0.50686988    -1.42600
C1326       C  0.81350460  0.99695165  0.43971638     1.09000
C1327       C  0.67749506  0.56021812  0.99962486     1.09100
C1328       C  0.81959441  0.55760709  0.01309412     1.09000
C1329       C  0.69584138  0.97322808  0.41446280     1.09000
C1330       C  0.84820734  0.82710517  0.01515255    -0.21800
C1331       C  0.87662194  0.82628161  0.98670131    -0.09800
C1332       C  0.87515120  0.84955399  0.45665658     0.29000
C1333       C  0.84450975  0.87462537  0.45445954    -0.21800
C1334       C  0.81895392  0.87773869  0.48544684    -0.09900
C1335       C  0.81880316  0.85317311  0.01317107     0.29000
F1336       F  0.79348697  0.85442465  0.04254492    -0.20400
H1337       H  0.84965334  0.80878874  0.04037272     0.17400
H1338       H  0.84222200  0.89339157  0.42963912     0.17400
F1339       F  0.90045309  0.84914661  0.42730437    -0.20400
C1340       C  0.86005039  0.65401002  0.00054407    -0.21800
C1341       C  0.89779223  0.64682861  0.00825896    -0.09800
C1342       C  0.90988730  0.60977092  0.01639734     0.29000
C1343       C  0.88453399  0.58087930  0.01752421    -0.21800
C1344       C  0.84676509  0.58796617  0.00977986    -0.09900
C1345       C  0.83477006  0.62498036  0.00092275     0.29000
F1346       F  0.80187102  0.63685165  0.48364233    -0.20400
H1347       H  0.85442303  0.68454169  0.48864087     0.17400
H1348       H  0.89448721  0.55297188  0.02489804     0.17400
F1349       F  0.94612001  0.60144005  0.02461367    -0.20400
C1350       C  0.62940200  0.83533839  0.46473964    -0.21800
C1351       C  0.60540060  0.82850260  0.49652032    -0.09800
C1352       C  0.60848834  0.85046204  0.52955935     0.29000
C1353       C  0.63242526  0.88063920  0.52946364    -0.21800
C1354       C  0.65446676  0.88889545  0.49683609    -0.09900
C1355       C  0.65382738  0.86522107  0.46488593     0.29000
F1356       F  0.67420545  0.87292376  0.43257372    -0.20400
H1357       H  0.62754252  0.81911457  0.43866454     0.17400
H1358       H  0.63283968  0.89844225  0.55451208     0.17400
F1359       F  0.58729349  0.84367764  0.56138218    -0.20400
C1360       C  0.61519732  0.58104974  0.46782247    -0.21800
C1361       C  0.64863048  0.58904856  0.98980578    -0.09800
C1362       C  0.65587810  0.62743670  0.99152247     0.29000
C1363       C  0.62730264  0.65409225  0.98451358    -0.21800
C1364       C  0.59247444  0.64550472  0.46673212    -0.09900
C1365       C  0.58735486  0.60750078  0.45905988     0.29000
F1366       F  0.55494433  0.59561262  0.44401572    -0.20400
H1367       H  0.61022921  0.55193521  0.46238651     0.17400
H1368       H  0.63324256  0.68334844  0.98738338     0.17400
F1369       F  0.69000140  0.63922264  0.00193702    -0.20400
C1370       C  0.90594118  0.52731668  0.39900528    -0.21800
C1371       C  0.89900038  0.52771075  0.35912335    -0.09800
C1372       C  0.86282167  0.01538224  0.34488118     0.29000
C1373       C  0.83454189  0.00869302  0.37185748    -0.21800
C1374       C  0.84188919  0.00946097  0.41156771    -0.09900
C1375       C  0.87723471  0.51996276  0.42536749     0.29000
F1376       F  0.88564669  0.51740531  0.46361256    -0.20400
H1377       H  0.93396418  0.53062887  0.40971834     0.17400
H1378       H  0.80729800  0.00112271  0.36162766     0.17400
F1379       F  0.85459609  0.01239765  0.30670611    -0.20400
C1380       C  0.63166682  0.95274579  0.33024027    -0.21800
C1381       C  0.60889387  0.98512026  0.32947696    -0.09800
C1382       C  0.61672246  0.01400142  0.35526721     0.29000
C1383       C  0.64598810  0.01022944  0.38140938    -0.21800
C1384       C  0.66852915  0.97789653  0.38266011    -0.10500
C1385       C  0.66151848  0.94918607  0.35639717     0.29000
F1386       F  0.68224472  0.91708060  0.35726255    -0.20400
H1387       H  0.62614113  0.93006968  0.31082130     0.17400
H1388       H  0.65049785  0.03262542  0.40152615     0.17400
F1389       F  0.59501837  0.04544751  0.35667926    -0.20400
C1390       C  0.66456095  0.47675996  0.14535496    -0.21800
C1391       C  0.66699424  0.50637003  0.11842285    -0.09800
C1392       C  0.63699696  0.03771675  0.11247492     0.29000
C1393       C  0.60843186  0.03817324  0.14005349    -0.21800
C1394       C  0.60556378  0.00929800  0.16755620    -0.09900
C1395       C  0.63255086  0.97998143  0.16743195     0.29000
F1396       F  0.63016359  0.95091843  0.19290814    -0.20400
H1397       H  0.68472590  0.45384724  0.14467812     0.17400
H1398       H  0.58768392  0.06057601  0.13901076     0.17400
F1399       F  0.63733820  0.06534156  0.08513846    -0.20400
C1400       C  0.85437673  0.51324689  0.18295875    -0.21800
C1401       C  0.88748310  0.49633108  0.16855532    -0.09800
C1402       C  0.88305473  0.97455407  0.13671268     0.29000
C1403       C  0.84992295  0.97481859  0.11564449    -0.21800
C1404       C  0.82275527  0.50081590  0.12294321    -0.09900
C1405       C  0.82221117  0.51587037  0.16008687     0.29000
F1406       F  0.79083022  0.53273670  0.17416060    -0.20400
H1407       H  0.85379763  0.52556281  0.21141823     0.17400
H1408       H  0.84635205  0.95327094  0.09446084     0.17400
F1409       F  0.90888091  0.94689750  0.13115531    -0.20400
C1410       C  0.51811625  0.65406214  0.31765922    -0.21800
C1411       C  0.98918507  0.63740816  0.31200005    -0.09800
C1412       C  0.95607760  0.65348101  0.32733750     0.29000
C1413       C  0.95777955  0.67906535  0.35743890    -0.21800
C1414       C  0.48868904  0.69132519  0.36823149    -0.09900
C1415       C  0.52013167  0.68201292  0.34516939     0.29000
F1416       F  0.55392140  0.69676088  0.35204851    -0.20400
H1417       H  0.54337716  0.64492954  0.30295080     0.17400
H1418       H  0.93227077  0.68906237  0.37104849     0.17400
F1419       F  0.92216626  0.64184977  0.31611447    -0.20400
C1420       C  0.49549311  0.88328020  0.33161166    -0.21800
C1421       C  0.48130786  0.91858168  0.34208348    -0.09800
C1422       C  0.97264295  0.92402783  0.38310849     0.29000
C1423       C  0.98018012  0.89679983  0.41125058    -0.21800
C1424       C  0.49444970  0.86272960  0.39926211    -0.09900
C1425       C  0.50208886  0.85542944  0.35999911     0.29000
F1426       F  0.51777619  0.82239406  0.34929706    -0.20400
H1427       H  0.50421156  0.87823922  0.30200659     0.17400
H1428       H  0.97452300  0.90363044  0.44120460     0.17400
F1429       F  0.95992089  0.95805660  0.39445390    -0.20400
C1430       C  0.01214367  0.86843499  0.09412605    -0.21800
C1431       C  0.99370257  0.83608690  0.10551448    -0.09800
C1432       C  0.50521379  0.82972626  0.14470512     0.29000
C1433       C  0.51627078  0.85624230  0.17158717    -0.21800
C1434       C  0.52599363  0.89204331  0.15884393    -0.09900
C1435       C  0.02541430  0.89268195  0.12145573     0.29000
F1436       F  0.04258989  0.92398219  0.10893261    -0.20400
H1437       H  0.01603385  0.87536300  0.06370678     0.17400
H1438       H  0.51441171  0.84976444  0.20230038     0.17400
F1439       F  0.49468299  0.79576246  0.15789734    -0.20400
C1440       C  0.48837758  0.64470872  0.16867631    -0.21800
C1441       C  0.99466289  0.59697736  0.15173873    -0.09800
C1442       C  0.01041360  0.59046424  0.11485225     0.29000
C1443       C  0.01734480  0.62037664  0.08941456    -0.21800
C1444       C  0.00854639  0.65700538  0.10040452    -0.09900
C1445       C  0.49925745  0.67348606  0.14388111     0.29000
F1446       F  0.49208834  0.70918946  0.15447667    -0.20400
H1447       H  0.47656192  0.65107465  0.19683358     0.17400
H1448       H  0.02645822  0.61468165  0.06007264     0.17400
F1449       F  0.01658767  0.55520752  0.10232349    -0.20400
O1450       O  0.00857829  0.53806349  0.67906463    -0.80600
O1451       O  0.56336480  0.01337149  0.79139889    -0.80700
O1452       O  0.95971047  0.59073982  0.78092595    -0.80700
O1453       O  0.56772234  0.97589001  0.71981631    -0.80600
O1454       O  0.51705709  0.58055924  0.79984712    -0.80700
O1455       O  0.53913401  0.51756860  0.67992843    -0.80700
O1456       O  0.55827926  0.95341772  0.79024279    -0.80600
O1457       O  0.96257973  0.57414091  0.70387130    -0.80700
C1458       C  0.98967514  0.56902881  0.68017332     1.09100
C1459       C  0.57590928  0.98163682  0.80113367     1.08900
C1460       C  0.98964143  0.60177895  0.79599149     1.09100
C1461       C  0.57352335  0.99611448  0.69017287     1.09000
O1462       O  0.01102455  0.95174134  0.67119549    -0.80600
O1463       O  0.96229724  0.04209444  0.83816625    -0.80700
O1464       O  0.91990153  0.50619766  0.72455473    -0.80700
O1465       O  0.48026503  0.94120830  0.78139931    -0.80600
O1466       O  0.50340497  0.97301704  0.83036254    -0.80700
O1467       O  0.95482531  0.50146630  0.67462492    -0.80600
O1468       O  0.52972531  0.91160901  0.72667108    -0.80600
O1469       O  0.92244355  0.52169806  0.79672745    -0.80700
Co1470     Co  0.99841790  0.49067862  0.70947964     1.51500
Co1471     Co  0.51274971  0.02480145  0.80960447     1.51700
Co1472     Co  0.94446847  0.54639583  0.75145840     1.51600
Co1473     Co  0.51957320  0.96054002  0.74791757     1.51500
O1474       O  0.49640931  0.52069076  0.75684765    -1.42600
C1475       C  0.51935354  0.91594203  0.69151578     1.09000
C1476       C  0.92923957  0.52981006  0.83108465     1.09100
C1477       C  0.92266834  0.50353792  0.68878652     1.09000
C1478       C  0.48622822  0.94498849  0.81734219     1.09000
O1479       O  0.96094629  0.66895802  0.50617596    -0.80600
O1480       O  0.50220031  0.84697994  0.96889221    -0.80700
O1481       O  0.91857292  0.78817614  0.52976585    -0.80700
O1482       O  0.52188641  0.73062371  0.91489877    -0.80600
O1483       O  0.93882094  0.80282050  0.97158814    -0.80700
O1484       O  0.97489522  0.70738116  0.93662100    -0.80700
O1485       O  0.51207808  0.79905027  0.92933147    -0.80600
O1486       O  0.91789089  0.71193268  0.51848909    -0.80700
C1487       C  0.92719248  0.67839108  0.51124943     1.09100
C1488       C  0.50471861  0.83431483  0.93485763     1.08900
C1489       C  0.91533351  0.80437081  0.49703833     1.09100
C1490       C  0.49470420  0.71008588  0.91143131     1.09000
O1491       O  0.52804008  0.65880218  0.46698595    -0.80600
O1492       O  0.47769481  0.82593807  0.53993469    -0.80700
O1493       O  0.97552779  0.70309979  0.57426956    -0.80700
O1494       O  0.57425851  0.78080389  0.96889328    -0.80600
O1495       O  0.54568551  0.80596664  0.01691916    -0.80700
O1496       O  0.02671196  0.69033099  0.54046734    -0.80600
O1497       O  0.56459093  0.70647995  0.97219864    -0.80600
O1498       O  0.98043629  0.77814490  0.58173475    -0.80700
Co1499     Co  0.00253988  0.70021714  0.48904581     1.51500
Co1500     Co  0.49367833  0.80216006  0.99446327     1.51700
Co1501     Co  0.95041909  0.74573383  0.54838299     1.51600
Co1502     Co  0.52853947  0.75331035  0.96459924     1.51500
O1503       O  0.48708416  0.75105522  0.00817063    -1.42600
C1504       C  0.55948757  0.67062580  0.97356647     1.09000
C1505       C  0.98642939  0.81216268  0.57466095     1.09100
C1506       C  0.00677352  0.68649816  0.57079867     1.09000
C1507       C  0.57475074  0.80328865  0.99594977     1.09000
O1508       O  0.78306335  0.48020231  0.57549472    -0.80600
O1509       O  0.65483493  0.95585225  0.00267821    -0.80700
O1510       O  0.70422385  0.53975438  0.56958115    -0.80700
O1511       O  0.78056037  0.92925782  0.95442807    -0.80600
O1512       O  0.70083702  0.97460646  0.56292486    -0.80700
O1513       O  0.78580510  0.92519319  0.51936907    -0.80700
O1514       O  0.70741766  0.92866944  0.98151575    -0.80600
O1515       O  0.78059482  0.54075814  0.57838642    -0.80700
C1516       C  0.79160590  0.50934602  0.59246996     1.09100
C1517       C  0.67289809  0.92662679  0.99314935     1.08900
C1518       C  0.69155607  0.50877341  0.58129871     1.09100
C1519       C  0.79113682  0.91173758  0.98448926     1.09000
O1520       O  0.82421354  0.47809355  0.97224996    -0.80600
O1521       O  0.66806049  0.52875048  0.01317667    -0.80700
O1522       O  0.78625383  0.56868915  0.49927001    -0.80700
O1523       O  0.72432026  0.95399467  0.90926855    -0.80600
O1524       O  0.68902518  0.99235887  0.94433442    -0.80700
O1525       O  0.82711330  0.52976060  0.52574291    -0.80600
O1526       O  0.77804252  0.00444251  0.93144443    -0.80600
O1527       O  0.71124558  0.57005190  0.49182819    -0.80700
Co1528     Co  0.80102749  0.47996594  0.52224720     1.51500
Co1529     Co  0.69867533  0.98317556  0.00414840     1.51700
Co1530     Co  0.74568225  0.55190418  0.53257379     1.51600
Co1531     Co  0.74221177  0.97065597  0.95734969     1.51500
O1532       O  0.75160859  0.49754653  0.01042563    -1.42600
C1533       C  0.81277493  0.99957356  0.93832501     1.09000
C1534       C  0.67712736  0.56307256  0.49459106     1.09100
C1535       C  0.81907539  0.56135260  0.50995495     1.09000
C1536       C  0.69509117  0.97410981  0.91265083     1.09000
C1537       C  0.85291171  0.82794053  0.51925139    -0.21800
C1538       C  0.88040397  0.82674138  0.48985956    -0.09800
C1539       C  0.87285391  0.85020493  0.95412528     0.29000
C1540       C  0.84285402  0.87602892  0.95184456    -0.21800
C1541       C  0.81654711  0.87879342  0.98217180    -0.09900
C1542       C  0.82281307  0.85321826  0.51729442     0.29000
F1543       F  0.79833320  0.85473121  0.54740986    -0.20400
H1544       H  0.85552036  0.81046533  0.54501747     0.17400
H1545       H  0.84172890  0.89564647  0.92766872     0.17400
F1546       F  0.89907376  0.85024630  0.92566197    -0.20400
C1547       C  0.86279123  0.65652440  0.49754552    -0.21800
C1548       C  0.89927038  0.64883483  0.51007794    -0.09800
C1549       C  0.90945714  0.61204617  0.52118756     0.29000
C1550       C  0.88352724  0.58377612  0.52027180    -0.21800
C1551       C  0.84698958  0.59118858  0.50768955    -0.09900
C1552       C  0.83690027  0.62801469  0.49594473     0.29000
F1553       F  0.79839195  0.63356444  0.99368287    -0.20400
H1554       H  0.85008160  0.68213751  0.99415927     0.17400
H1555       H  0.89203306  0.55606936  0.53006250     0.17400
F1556       F  0.94428895  0.60350728  0.53427205    -0.20400
C1557       C  0.62928613  0.83576671  0.96656056    -0.21800
C1558       C  0.60632541  0.82908701  0.99922593    -0.09800
C1559       C  0.61000430  0.85172332  0.03166152     0.29000
C1560       C  0.63331594  0.88241214  0.03011231    -0.21800
C1561       C  0.65420543  0.89051725  0.99660174    -0.09900
C1562       C  0.65311661  0.86615854  0.96524096     0.29000
F1563       F  0.67243821  0.87357200  0.93215265    -0.20400
H1564       H  0.62698233  0.81898696  0.94092524     0.17400
H1565       H  0.63418149  0.90066353  0.05477677     0.17400
F1566       F  0.59007625  0.84496807  0.06436700    -0.20400
C1567       C  0.61263364  0.57810688  0.98050335    -0.21800
C1568       C  0.64893315  0.59178026  0.48378028    -0.09800
C1569       C  0.65467499  0.62975812  0.49071438     0.29000
C1570       C  0.62658858  0.65638594  0.48220569    -0.21800
C1571       C  0.59105841  0.64302400  0.97571481    -0.09900
C1572       C  0.58424433  0.60452345  0.97339155     0.29000
F1573       F  0.54983335  0.59206174  0.96507067    -0.20400
H1574       H  0.60627163  0.54881269  0.97905184     0.17400
H1575       H  0.63085267  0.68521143  0.48946379     0.17400
F1576       F  0.68642806  0.64080340  0.50790604    -0.20400
C1577       C  0.90736082  0.52250594  0.89997726    -0.21800
C1578       C  0.89898999  0.52642389  0.86045574    -0.09800
C1579       C  0.86258994  0.02270138  0.84467963     0.29000
C1580       C  0.83394241  0.01579031  0.87123540    -0.21800
C1581       C  0.84144333  0.01322025  0.91095003    -0.09900
C1582       C  0.87948461  0.51371538  0.92690648     0.29000
F1583       F  0.88943185  0.50775253  0.96444349    -0.20400
H1584       H  0.93584212  0.52439964  0.90984409     0.17400
H1585       H  0.80626390  0.01055057  0.86053289     0.17400
F1586       F  0.85417649  0.02343128  0.80634202    -0.20400
C1587       C  0.63300844  0.94895199  0.82838175    -0.21800
C1588       C  0.60754940  0.97920481  0.82824504    -0.09800
C1589       C  0.61226695  0.00812641  0.85474182     0.29000
C1590       C  0.64185934  0.00689711  0.88063452    -0.21800
C1591       C  0.66726937  0.97670271  0.88120357    -0.10500
C1592       C  0.66289665  0.94775973  0.85454298     0.29000
F1593       F  0.68654235  0.91770383  0.85466907    -0.20400
H1594       H  0.62978669  0.92643895  0.80834985     0.17400
H1595       H  0.64457868  0.02927974  0.90055866     0.17400
F1596       F  0.58737140  0.03714169  0.85685369    -0.20400
C1597       C  0.66024336  0.47889798  0.63890150    -0.21800
C1598       C  0.66337923  0.50904451  0.61285768    -0.09800
C1599       C  0.64572825  0.03476053  0.62390487     0.29000
C1600       C  0.61750641  0.03311422  0.65160899    -0.21800
C1601       C  0.61009617  0.99965256  0.67134059    -0.09900
C1602       C  0.63291161  0.96810022  0.66454217     0.29000
F1603       F  0.62526448  0.93500994  0.68197525    -0.20400
H1604       H  0.67974427  0.45546045  0.63741001     0.17400
H1605       H  0.59956801  0.05747690  0.65566991     0.17400
F1606       F  0.64898015  0.06681902  0.60281681    -0.20400
C1607       C  0.85977709  0.53047078  0.67271861    -0.21800
C1608       C  0.88872627  0.50440451  0.66486748    -0.09800
C1609       C  0.88054383  0.97119977  0.64391517     0.29000
C1610       C  0.84699604  0.97161102  0.62348355    -0.21800
C1611       C  0.82310570  0.50678587  0.61997240    -0.09900
C1612       C  0.82748323  0.53222393  0.64993166     0.29000
F1613       F  0.80069884  0.55855832  0.65714156    -0.20400
H1614       H  0.86265699  0.55012195  0.69594788     0.17400
H1615       H  0.84049352  0.94727976  0.60689926     0.17400
F1616       F  0.90290674  0.94018155  0.64376021    -0.20400
C1617       C  0.52081860  0.65499981  0.82340073    -0.21800
C1618       C  0.98884129  0.63828112  0.81464066    -0.09800
C1619       C  0.95585988  0.65088398  0.83322620     0.29000
C1620       C  0.95730027  0.67817189  0.86142161    -0.21800
C1621       C  0.49028184  0.69022268  0.87475648    -0.09900
C1622       C  0.52237075  0.68130421  0.85248251     0.29000
F1623       F  0.55626455  0.69472862  0.86148240    -0.20400
H1624       H  0.54641759  0.64613974  0.80913652     0.17400
H1625       H  0.93242747  0.68495802  0.87803030     0.17400
F1626       F  0.92300934  0.63384292  0.82770662    -0.20400
C1627       C  0.49376605  0.87801665  0.83445765    -0.21800
C1628       C  0.48045009  0.91378727  0.84427478    -0.09800
C1629       C  0.97063717  0.92451776  0.88243598     0.29000
C1630       C  0.97732961  0.89743862  0.91091293    -0.21800
C1631       C  0.49500788  0.86008322  0.90258489    -0.09900
C1632       C  0.50105422  0.85114665  0.86349453     0.29000
F1633       F  0.51594237  0.81754718  0.85350928    -0.20400
H1634       H  0.50149041  0.87191486  0.80479021     0.17400
H1635       H  0.97095720  0.90453166  0.94065101     0.17400
F1636       F  0.95781871  0.95867659  0.89323461    -0.20400
C1637       C  0.01893646  0.86912130  0.59349395    -0.21800
C1638       C  0.00120489  0.83634920  0.60499915    -0.09800
C1639       C  0.49489128  0.82540259  0.64448652     0.29000
C1640       C  0.50539838  0.85023208  0.67339089    -0.21800
C1641       C  0.51908249  0.88533824  0.66320879    -0.09900
C1642       C  0.03038057  0.89442052  0.62078323     0.29000
F1643       F  0.04618772  0.92644877  0.60822950    -0.20400
H1644       H  0.02318526  0.87574583  0.56305767     0.17400
H1645       H  0.50044532  0.84304902  0.70356685     0.17400
F1646       F  0.48013575  0.79241544  0.65541616    -0.20400
C1647       C  0.49586048  0.63583577  0.66292756    -0.21800
C1648       C  0.00054671  0.59954920  0.65349326    -0.09800
C1649       C  0.01645099  0.59231786  0.61677587     0.29000
C1650       C  0.02379980  0.62175472  0.59088889    -0.21800
C1651       C  0.01551472  0.65861694  0.60133350    -0.09900
C1652       C  0.50329106  0.66499930  0.63701310     0.29000
F1653       F  0.49596643  0.70050495  0.64823723    -0.20400
H1654       H  0.48552299  0.64226796  0.69167134     0.17400
H1655       H  0.03248873  0.61550108  0.56151933     0.17400
F1656       F  0.02210838  0.55684207  0.60468653    -0.20400
loop_ 
_geom_bond_atom_site_label_1 
_geom_bond_atom_site_label_2 
_geom_bond_distance 
_geom_bond_site_symmetry_2 
_ccdc_geom_bond_type 
O1            C9   1.291       .  A
O1          Co21   2.030   1_545  S
O2           C10   1.256       .  A
O2          Co22   1.962       .  S
O3           C11   1.270       .  A
O3          Co23   1.991       .  S
O4           C12   1.254       .  A
O4          Co24   2.038       .  S
O5          C839   1.269   1_455  A
O5         Co436   1.969       .  S
O6          C426   1.262       .  A
O6         Co849   2.002   1_445  S
O7           C10   1.273       .  A
O7          Co24   2.040       .  S
O8            C9   1.279       .  A
O8          Co23   2.023       .  S
C9          C199   1.479       .  S
C10         C139   1.491       .  S
C11         O833   1.270       .  A
C11         C169   1.466       .  S
C12         O420   1.263       .  A
C12         C152   1.484       .  S
O13         C854   1.284       .  A
O13        Co435   2.034       .  S
O14         C441   1.268       .  A
O14        Co850   2.031       .  S
O15          C28   1.239       .  A
O15         Co23   1.952       .  S
O16          C29   1.271       .  A
O16         Co24   1.965   1_655  S
O17          C29   1.279   1_455  A
O17         Co22   2.009       .  S
O18          C28   1.248       .  A
O18         Co21   1.998   1_545  S
O19          C26   1.290       .  A
O19         Co24   2.000       .  S
O20          C27   1.249       .  A
O20         Co23   1.951       .  S
Co21        O834   1.992   1_565  S
Co21        O427   1.944       .  S
Co21        O853   1.998   1_565  S
Co22        O419   1.954       .  S
Co22        O842   2.030   1_455  S
Co22        O439   2.012   1_455  S
Co23        O853   2.033       .  S
Co24        O439   2.097   1_455  S
O25        Co849   1.999   1_545  S
O25        Co436   2.026   1_655  S
O25        Co851   2.033       .  S
O25        Co438   2.102   1_645  S
C26         O841   1.277       .  A
C26         C192   1.468       .  S
C27         O428   1.266       .  A
C27         C129   1.486       .  S
C28         C159   1.467       .  S
C29         C179   1.469       .  S
O30          C38   1.263       .  A
O30         Co50   1.974   1_554  S
O31          C39   1.268   1_655  A
O31         Co51   1.855       .  S
O32          C40   1.269   1_554  A
O32         Co52   1.994       .  S
O33          C41   1.245   1_455  A
O33         Co53   1.934       .  S
O34         C247   1.272       .  A
O34        Co879   2.009       .  S
O35         C869   1.268       .  A
O35        Co257   2.018       .  S
O36          C39   1.307       .  A
O36         Co53   2.116       .  S
O37          C38   1.272       .  A
O37         Co52   2.004       .  S
C38          C99   1.482       .  S
C39         C182   1.482   1_455  S
C40         O241   1.271       .  A
C40          C89   1.498       .  S
C41         O863   1.269       .  A
C41         C172   1.475       .  S
O42         C262   1.266       .  A
O42        Co878   1.869       .  S
O43         C884   1.269       .  A
O43        Co258   1.985   1_554  S
O44          C57   1.264       .  A
O44         Co52   1.967       .  S
O45          C58   1.245       .  A
O45         Co53   1.943       .  S
O46          C58   1.271       .  A
O46         Co51   2.036   1_455  S
O47          C57   1.272       .  A
O47         Co50   1.999   1_554  S
O48          C55   1.307       .  A
O48         Co53   2.118       .  S
O49          C56   1.267       .  A
O49         Co52   1.995       .  S
Co50        O242   2.024       .  S
Co50        O870   1.879       .  S
Co50       O1089   1.924   1_556  S
Co51        O862   2.011       .  S
Co51        O250   1.981       .  S
Co51         O54   1.911       .  S
Co52       O1089   2.025       .  S
Co53         O54   2.117   1_455  S
O54       Co1085   1.912   1_655  S
O54       Co1087   2.027       .  S
C55         O249   1.265       .  A
C55         C122   1.493       .  S
C56         O871   1.270       .  A
C56         C189   1.493       .  S
C57         C202   1.471       .  S
C58         C109   1.490       .  S
O59          C67   1.253   1_565  A
O59         Co79   1.943       .  S
O60          C68   1.267       .  A
O60         Co80   1.875       .  S
O61          C69   1.273       .  A
O61         Co81   2.016       .  S
O62          C70   1.261       .  A
O62         Co82   2.001       .  S
O63         C483   1.270       .  A
O63        Co287   1.987       .  S
O64         C277   1.264   1_554  A
O64        Co493   1.988       .  S
O65          C68   1.303       .  A
O65         Co82   2.135       .  S
O66          C67   1.273       .  A
O66         Co81   2.038       .  S
C67         C162   1.470       .  S
C68         C112   1.480       .  S
C69         O477   1.270   1_545  A
C69         C149   1.488       .  S
C70         O271   1.262       .  A
C70          C92   1.478       .  S
O71         C498   1.275       .  A
O71        Co286   2.003       .  S
O72         C292   1.270       .  A
O72        Co494   2.012   1_545  S
O73          C86   1.259       .  A
O73         Co81   1.952       .  S
O74          C87   1.266       .  A
O74         Co82   1.897       .  S
O75          C87   1.300       .  A
O75         Co80   2.124       .  S
O76          C86   1.278       .  A
O76         Co79   2.046   1_545  S
O77          C84   1.277       .  A
O77         Co82   1.991       .  S
O78          C85   1.259       .  A
O78         Co81   1.974   1_556  S
Co79        O478   1.977       .  S
Co79        O278   2.004   1_554  S
Co79        O290   2.016       .  S
Co80        O270   1.989       .  S
Co80        O486   2.002       .  S
Co80        O497   1.989       .  S
Co81        O290   2.055   1_545  S
Co82        O497   2.013       .  S
O83        Co286   2.012       .  S
O83        Co494   1.983       .  S
O83        Co288   2.054   1_565  S
O83        Co496   2.011       .  S
C84         O485   1.274       .  A
C84         C132   1.481       .  S
C85         O279   1.268   1_556  A
C85         C119   1.481       .  S
C86         C102   1.485       .  S
C87         C142   1.482       .  S
C88          C89   1.413   1_554  A
C88          C93   1.399       .  A
C88          H95   1.083       .  S
C89         C297   1.410       .  A
C90          C91   1.405       .  A
C90         C296   1.407       .  A
C90          F97   1.357       .  S
C91          C92   1.409       .  A
C91          H96   1.083       .  S
C92         C300   1.400       .  A
C93         C299   1.401   1_554  A
C93          F94   1.358       .  S
C98          C99   1.400       .  A
C98         C103   1.398       .  A
C98         H312   1.083   1_554  S
C99         C100   1.413       .  A
C100        C101   1.398       .  A
C100        F107   1.358       .  S
C101        C102   1.402       .  A
C101        H106   1.082       .  S
C102        C103   1.414       .  A
C103        F311   1.358   1_554  S
F104        C310   1.358       .  S
H105        C305   1.083       .  S
C108        C109   1.414       .  A
C108        C113   1.405       .  A
C108        H115   1.083       .  S
C109        C110   1.401       .  A
C110        C111   1.397       .  A
C110        F117   1.351       .  S
C111        C112   1.404       .  A
C111        H116   1.084       .  S
C112        C113   1.406       .  A
C113        F114   1.358       .  S
C118        C123   1.394       .  A
C118        C326   1.399       .  A
C118        H125   1.083       .  S
C119        C120   1.412       .  A
C119        C325   1.399       .  A
C120        C121   1.408       .  A
C120        F127   1.358       .  S
C121        C329   1.407       .  A
C121        H126   1.077       .  S
C122        C123   1.416       .  A
C122        C328   1.407       .  A
C123        F124   1.357       .  S
C128        C129   1.401       .  A
C128        C133   1.399       .  A
C128        H135   1.083       .  S
C129        C544   1.415       .  A
C130        C131   1.399       .  A
C130        C543   1.413       .  A
C130        F137   1.357       .  S
C131        C132   1.399       .  A
C131        H136   1.083       .  S
C132        C547   1.413       .  A
C133        C546   1.413       .  A
C133        F134   1.357       .  S
C138        C139   1.405       .  A
C138        C143   1.406       .  A
C138        H145   1.087       .  S
C139        C140   1.417       .  A
C140        C141   1.395       .  A
C140        F147   1.358       .  S
C141        C142   1.398       .  A
C141        H146   1.088       .  S
C142        C143   1.411       .  A
C143        F144   1.357       .  S
C148        C149   1.404   1_565  A
C148        C567   1.407       .  A
C148        H155   1.083       .  S
C149        C564   1.412       .  A
C150        C151   1.400       .  A
C150        C563   1.413       .  A
C150        F157   1.358       .  S
C151        C152   1.400       .  A
C151        H156   1.083       .  S
C152        C153   1.413       .  A
C153        C562   1.404       .  A
C153        F154   1.358       .  S
C158        C159   1.409       .  A
C158        C163   1.399       .  A
C158        H165   1.084       .  S
C159        C574   1.398   1_545  A
C160        C161   1.401       .  A
C160        C573   1.404       .  A
C160        F167   1.358       .  S
C161        C576   1.407       .  A
C161        H166   1.083       .  S
C162        C163   1.400       .  A
C162        C575   1.410   1_545  A
C163        F164   1.357       .  S
C168        C173   1.394       .  A
C168        C997   1.398   1_455  A
C168        H175   1.083       .  S
C169        C170   1.412       .  A
C169        C996   1.396       .  A
C170        C171   1.395       .  A
C170        F177   1.358       .  S
C171       C1000   1.397       .  A
C171        H176   1.083       .  S
C172        C173   1.415   1_655  A
C172        C999   1.398       .  A
C173        F174   1.358       .  S
C178        C179   1.407       .  A
C178        C183   1.404       .  A
C178        H185   1.083       .  S
C179       C1008   1.401       .  A
C180        C181   1.385       .  A
C180       C1007   1.398       .  A
C180        F187   1.355       .  S
C181       C1010   1.408       .  A
C181        H186   1.083       .  S
C182        C183   1.407       .  A
C182       C1009   1.409       .  A
C183        F184   1.357   1_655  S
C188        C189   1.403       .  A
C188        C193   1.396       .  A
C188        H195   1.083       .  S
C189       C1018   1.414       .  A
C190        C191   1.403   1_655  A
C190       C1017   1.411       .  A
C190        F197   1.357       .  S
C191        C192   1.402       .  A
C191        H196   1.083       .  S
C192       C1021   1.406       .  A
C193       C1020   1.411       .  A
C193        F194   1.359       .  S
C198        C203   1.393   1_655  A
C198       C1027   1.401   1_655  A
C198        H205   1.084       .  S
C199        C200   1.409       .  A
C199       C1026   1.402       .  A
C200        C201   1.401       .  A
C200        F207   1.358       .  S
C201        C202   1.403       .  A
C201        H206   1.084       .  S
C202       C1031   1.408       .  A
C203       C1030   1.407       .  A
C203        F204   1.358   1_455  S
O208        C216   1.238       .  A
O208       Co228   1.866       .  S
O209        C217   1.258       .  A
O209       Co229   1.961       .  S
O210        C218   1.270       .  A
O210       Co230   2.008       .  S
O211        C219   1.253       .  A
O211       Co231   2.044       .  S
O212       C1046   1.268   1_455  A
O212       Co643   1.961       .  S
O213        C633   1.263       .  A
O213      Co1056   2.000   1_545  S
O214        C217   1.271       .  A
O214       Co231   2.032       .  S
O215        C216   1.280       .  A
O215       Co230   2.058       .  S
C216        C406   1.459       .  S
C217        C346   1.479       .  S
C218       O1040   1.266       .  A
C218        C376   1.482       .  S
C219        O627   1.262       .  A
C219        C359   1.486       .  S
O220       C1061   1.278       .  A
O220       Co642   1.940       .  S
O221        C648   1.264       .  A
O221      Co1057   2.022       .  S
O222        C235   1.251   1_545  A
O222       Co230   1.966       .  S
O223        C236   1.272       .  A
O223       Co231   1.969   1_655  S
O224        C236   1.279   1_455  A
O224       Co229   2.013       .  S
O225        C235   1.253   1_545  A
O225       Co228   1.965       .  S
O226        C233   1.289       .  A
O226       Co231   1.994       .  S
O227        C234   1.254       .  A
O227       Co230   1.957       .  S
Co228      O1041   1.906       .  S
Co228       O634   2.039   1_545  S
Co228      O1060   2.024       .  S
Co229       O626   1.969       .  S
Co229      O1049   2.023   1_455  S
Co229       O646   2.020   1_455  S
Co230      O1060   2.075       .  S
Co231       O646   2.106   1_455  S
O232      Co1056   1.998   1_645  S
O232       Co643   2.021   1_655  S
O232      Co1058   2.029       .  S
O232       Co645   2.097   1_645  S
C233       O1048   1.278       .  A
C233        C399   1.466       .  S
C234        O635   1.269       .  A
C234        C336   1.488       .  S
C235        C366   1.461       .  S
C236        C386   1.475       .  S
O237        C245   1.263       .  A
O237       Co257   1.978       .  S
O238        C246   1.269   1_655  A
O238       Co258   1.860       .  S
O239        C247   1.265       .  A
O239       Co259   1.977       .  S
O240        C248   1.244   1_455  A
O240       Co260   1.925       .  S
O241      Co1086   2.006       .  S
O242       C1076   1.269       .  A
O243        C246   1.307       .  A
O243       Co260   2.118       .  S
O244        C245   1.271       .  A
O244       Co259   2.009       .  S
C245        C306   1.482       .  S
C246        C389   1.487   1_455  S
C247        C296   1.491       .  S
C248       O1070   1.269       .  A
C248        C379   1.469       .  S
O249      Co1085   1.873       .  S
O250       C1091   1.267       .  A
O251        C264   1.260       .  A
O251       Co259   1.942       .  S
O252        C265   1.244       .  A
O252       Co260   1.938       .  S
O253        C265   1.270   1_554  A
O253       Co258   2.036   1_454  S
O254        C264   1.270       .  A
O254       Co257   1.990       .  S
O255        C262   1.306       .  A
O255       Co260   2.114       .  S
O256        C263   1.264       .  A
O256       Co259   1.988       .  S
Co257      O1077   1.883       .  S
Co257       O882   1.909       .  S
Co258      O1069   2.005       .  S
Co258       O261   1.909   1_556  S
Co259       O882   2.025       .  S
Co260       O261   2.116   1_456  S
O261       Co878   1.912   1_654  S
O261       Co880   2.028       .  S
C262        C329   1.489       .  S
C263       O1078   1.267       .  A
C263        C396   1.479       .  S
C264        C409   1.450       .  S
C265        C316   1.485       .  S
O266        C274   1.250   1_565  A
O266       Co286   1.939       .  S
O267        C275   1.267   1_554  A
O267       Co287   1.871       .  S
O268        C276   1.270       .  A
O268       Co288   2.004       .  S
O269        C277   1.263       .  A
O269       Co289   2.009       .  S
O270        C690   1.272       .  A
O271       Co700   1.982       .  S
O272        C275   1.304       .  A
O272       Co289   2.138       .  S
O273        C274   1.274       .  A
O273       Co288   2.041       .  S
C274        C369   1.460       .  S
C275        C319   1.476   1_556  S
C276        O684   1.272   1_545  A
C276        C356   1.489       .  S
C277        C299   1.486       .  S
O278        C705   1.275       .  A
O279       Co701   2.004   1_545  S
O280        C293   1.257       .  A
O280       Co288   1.951       .  S
O281        C294   1.268       .  A
O281       Co289   1.899       .  S
O282        C294   1.298       .  A
O282       Co287   2.111   1_556  S
O283        C293   1.279       .  A
O283       Co286   2.049   1_545  S
O284        C291   1.279       .  A
O284       Co289   1.995       .  S
O285        C292   1.261       .  A
O285       Co288   1.975       .  S
Co286       O685   1.979       .  S
Co287       O693   2.010       .  S
Co287       O704   1.982       .  S
Co289       O704   2.012   1_556  S
O290       Co701   1.984       .  S
O290       Co703   2.015   1_554  S
C291        O692   1.274       .  A
C291        C339   1.484       .  S
C292        C326   1.485       .  S
C293        C309   1.488       .  S
C294        C349   1.485       .  S
C295        C296   1.413       .  A
C295        C300   1.395       .  A
C295        H302   1.083       .  S
C297        C298   1.407       .  A
C297        F304   1.356       .  S
C298        C299   1.410       .  A
C298        H303   1.083       .  S
C300        F301   1.358       .  S
C305        C306   1.401       .  A
C305        C310   1.402       .  A
C306        C307   1.411       .  A
C307        C308   1.398       .  A
C307        F314   1.358       .  S
C308        C309   1.402       .  A
C308        H313   1.083       .  S
C309        C310   1.416       .  A
C315        C316   1.413       .  A
C315        C320   1.403       .  A
C315        H322   1.083       .  S
C316        C317   1.401   1_556  A
C317        C318   1.398       .  A
C317        F324   1.353       .  S
C318        C319   1.404       .  A
C318        H323   1.084       .  S
C319        C320   1.404   1_554  A
C320        F321   1.359       .  S
C325        C330   1.390       .  A
C325        H332   1.078       .  S
C326        C327   1.413       .  A
C327        C328   1.408       .  A
C327        F334   1.358       .  S
C328        H333   1.082       .  S
C329        C330   1.414       .  A
C330        F331   1.358       .  S
C335        C336   1.401       .  A
C335        C340   1.401       .  A
C335        H342   1.083       .  S
C336        C751   1.413       .  A
C337        C750   1.414       .  A
C337        C338   1.401       .  A
C337        F344   1.358       .  S
C338        C339   1.401       .  A
C338        H343   1.083       .  S
C339        C754   1.414       .  A
C340        C753   1.415       .  A
C340        F341   1.357       .  S
C345        C346   1.404       .  A
C345        C350   1.408       .  A
C345        H352   1.083       .  S
C346        C347   1.408       .  A
C347        C348   1.391       .  A
C347        F354   1.359       .  S
C348        C349   1.403       .  A
C348        H353   1.083       .  S
C349        C350   1.413       .  A
C350        F351   1.357       .  S
C355        C356   1.403   1_565  A
C355        C774   1.405       .  A
C355        H362   1.083       .  S
C356        C771   1.415       .  A
C357        C770   1.415       .  A
C357        C358   1.402       .  A
C357        F364   1.358       .  S
C358        C359   1.401       .  A
C358        H363   1.083       .  S
C359        C360   1.412       .  A
C360        C769   1.405       .  A
C360        F361   1.358       .  S
C365        C366   1.409   1_545  A
C365        C370   1.398       .  A
C365        H372   1.083       .  S
C366        C781   1.398       .  A
C367        C780   1.405       .  A
C367        C368   1.402       .  A
C367        F374   1.357       .  S
C368        C783   1.407       .  A
C368        H373   1.083       .  S
C369        C782   1.407   1_545  A
C369        C370   1.397       .  A
C370        F371   1.357       .  S
C375       C1204   1.397   1_455  A
C375        C380   1.391       .  A
C375        H382   1.083       .  S
C376       C1203   1.401       .  A
C376        C377   1.414       .  A
C377        C378   1.399       .  A
C377        F384   1.357       .  S
C378       C1207   1.397       .  A
C378        H383   1.083       .  S
C379       C1206   1.396       .  A
C379        C380   1.415   1_655  A
C380        F381   1.359       .  S
C385        C386   1.408       .  A
C385        C390   1.409       .  A
C385        H392   1.083       .  S
C386       C1215   1.400       .  A
C387       C1214   1.399       .  A
C387        C388   1.388       .  A
C387        F394   1.355       .  S
C388       C1217   1.407       .  A
C388        H393   1.083       .  S
C389       C1216   1.408       .  A
C389        C390   1.409       .  A
C390        F391   1.357   1_655  S
C395        C396   1.401       .  A
C395        C400   1.386       .  A
C395        H402   1.084       .  S
C396       C1225   1.412       .  A
C397       C1224   1.410       .  A
C397        C398   1.403   1_655  A
C397        F404   1.357       .  S
C398        C399   1.403       .  A
C398        H403   1.083       .  S
C399       C1228   1.405       .  A
C400       C1227   1.405       .  A
C400        F401   1.359       .  S
C405       C1234   1.402   1_655  A
C405        C410   1.392       .  A
C405        H412   1.084       .  S
C406       C1233   1.394       .  A
C406        C407   1.416       .  A
C407        C408   1.387       .  A
C407        F414   1.360       .  S
C408        C409   1.394       .  A
C408        H413   1.085       .  S
C409       C1238   1.411       .  A
C410       C1237   1.408   1_655  A
C410        F411   1.359       .  S
O415        C423   1.239       .  A
O415       Co435   1.880       .  S
O416        C424   1.259   1_545  A
O416       Co436   1.962       .  S
O417        C425   1.272       .  A
O417       Co437   2.016       .  S
O418        C426   1.253   1_565  A
O418       Co438   2.042       .  S
O419       C1253   1.268   1_455  A
O420      Co1263   2.000   1_455  S
O421        C424   1.274       .  A
O421       Co438   2.035       .  S
O422        C423   1.281       .  A
O422       Co437   2.066       .  S
C423        C613   1.457       .  S
C424        C553   1.481       .  S
C425       O1247   1.267       .  A
C425        C583   1.481       .  S
C426        C566   1.487       .  S
O427       C1268   1.278       .  A
O428      Co1264   2.025       .  S
O429        C442   1.251       .  A
O429       Co437   1.978       .  S
O430        C443   1.271       .  A
O430       Co438   1.969   1_655  S
O431        C443   1.276   1_455  A
O431       Co436   2.006   1_565  S
O432        C442   1.254       .  A
O432       Co435   1.974       .  S
O433        C440   1.290       .  A
O433       Co438   2.002       .  S
O434        C441   1.253       .  A
O434       Co437   1.953       .  S
Co435      O1248   1.910       .  S
Co435      O1267   2.024       .  S
Co436      O1256   2.027   1_455  S
Co437      O1267   2.068       .  S
O439      Co1263   1.993       .  S
O439      Co1265   2.026       .  S
C440       O1255   1.279       .  A
C440        C606   1.471       .  S
C441        C543   1.483       .  S
C442        C573   1.458       .  S
C443        C593   1.472       .  S
O444        C452   1.264       .  A
O444       Co464   1.977   1_554  S
O445        C453   1.268       .  A
O445       Co465   1.865   1_455  S
O446        C454   1.265   1_554  A
O446       Co466   1.977       .  S
O447        C455   1.244   1_455  A
O447       Co467   1.928       .  S
O448        C661   1.270       .  A
O448      Co1293   2.004       .  S
O449       C1283   1.268       .  A
O449       Co671   2.024       .  S
O450        C453   1.305       .  A
O450       Co467   2.109       .  S
O451        C452   1.274       .  A
O451       Co466   2.012       .  S
C452        C513   1.490       .  S
C453        C596   1.483   1_455  S
C454        O655   1.271       .  A
C454        C503   1.488       .  S
C455       O1277   1.268       .  A
C455        C586   1.469       .  S
O456        C676   1.264       .  A
O456      Co1292   1.870   1_455  S
O457       C1298   1.270       .  A
O457       Co672   1.985   1_554  S
O458        C471   1.258       .  A
O458       Co466   1.936       .  S
O459        C472   1.245       .  A
O459       Co467   1.943       .  S
O460        C472   1.269       .  A
O460       Co465   2.031   1_455  S
O461        C471   1.271       .  A
O461       Co464   1.995   1_554  S
O462        C469   1.305       .  A
O462       Co467   2.108       .  S
O463        C470   1.264       .  A
O463       Co466   1.993       .  S
Co464       O656   2.025       .  S
Co464      O1284   1.877       .  S
Co464      O1503   1.910   1_556  S
Co465      O1276   2.006       .  S
Co465       O664   1.984       .  S
Co465       O468   1.913       .  S
Co466      O1503   2.026       .  S
Co467       O468   2.115   1_455  S
O468      Co1499   1.916   1_655  S
O468      Co1501   2.026       .  S
C469        O663   1.266       .  A
C469        C536   1.482       .  S
C470       O1285   1.267       .  A
C470        C603   1.482       .  S
C471        C616   1.453       .  S
C472        C523   1.485       .  S
O473        C481   1.259       .  A
O473       Co493   1.958       .  S
O474        C482   1.268       .  A
O474       Co494   1.874       .  S
O475        C483   1.272       .  A
O475       Co495   2.015       .  S
O476        C484   1.263       .  A
O476       Co496   2.018       .  S
O477       Co701   1.989       .  S
O478        C691   1.259   1_554  A
O479        C482   1.303       .  A
O479       Co496   2.133       .  S
O480        C481   1.273       .  A
O480       Co495   2.019       .  S
C481        C576   1.469       .  S
C482        C526   1.476       .  S
C483        C563   1.487       .  S
C484        O685   1.258       .  A
C484        C506   1.486       .  S
O485       Co700   2.002       .  S
O486        C706   1.267       .  A
O487        C500   1.260   1_556  A
O487       Co495   1.959   1_556  S
O488        C501   1.268       .  A
O488       Co496   1.892       .  S
O489        C501   1.300       .  A
O489       Co494   2.115       .  S
O490        C500   1.278       .  A
O490       Co493   2.041       .  S
O491        C498   1.278   1_545  A
O491       Co496   1.991   1_545  S
O492        C499   1.259       .  A
O492       Co495   1.966   1_556  S
Co493       O692   2.000   1_554  S
Co493       O704   2.020       .  S
Co494       O684   1.994       .  S
Co495       O704   2.050       .  S
O497       Co700   2.025       .  S
O497       Co702   2.045       .  S
C498        C546   1.481   1_565  S
C499        O693   1.269   1_556  A
C499        C533   1.475       .  S
C500        C516   1.488       .  S
C501        C556   1.483       .  S
C502        C503   1.412   1_554  A
C502        C507   1.395       .  A
C502        H509   1.083       .  S
C503        C711   1.407       .  A
C504        C710   1.410       .  A
C504        C505   1.408       .  A
C504        F511   1.357       .  S
C505        C506   1.409       .  A
C505        H510   1.083       .  S
C506        C714   1.404       .  A
C507        C713   1.401   1_554  A
C507        F508   1.358       .  S
C512        C513   1.404       .  A
C512        C517   1.405       .  A
C512        H726   1.083       .  S
C513        C514   1.414       .  A
C514        C515   1.396       .  A
C514        F521   1.358       .  S
C515        C516   1.401       .  A
C515        H520   1.082       .  S
C516        C517   1.415       .  A
C517        F725   1.358       .  S
F518        C724   1.357       .  S
H519        C719   1.083       .  S
C522        C523   1.413       .  A
C522        C527   1.403       .  A
C522        H529   1.083       .  S
C523        C524   1.402       .  A
C524        C525   1.398       .  A
C524        F531   1.354       .  S
C525        C526   1.404       .  A
C525        H530   1.084       .  S
C526        C527   1.405       .  A
C527        F528   1.359       .  S
C532        C740   1.397       .  A
C532        C537   1.391       .  A
C532        H539   1.085       .  S
C533        C739   1.397       .  A
C533        C534   1.410       .  A
C534        C535   1.403       .  A
C534        F541   1.358   1_556  S
C535        C743   1.405       .  A
C535        H540   1.083       .  S
C536        C742   1.405       .  A
C536        C537   1.413       .  A
C537        F538   1.357       .  S
C542        C543   1.401       .  A
C542        C547   1.398       .  A
C542        H549   1.083       .  S
C544        C545   1.399       .  A
C544        F551   1.358       .  S
C545        C546   1.400       .  A
C545        H550   1.083       .  S
C547        F548   1.356       .  S
C552        C553   1.403       .  A
C552        C557   1.407       .  A
C552        H559   1.081       .  S
C553        C554   1.410   1_565  A
C554        C555   1.393       .  A
C554        F561   1.359       .  S
C555        C556   1.402   1_545  A
C555        H560   1.082       .  S
C556        C557   1.413       .  A
C557        F558   1.357       .  S
C562        C563   1.402       .  A
C562        H569   1.083       .  S
C564        C565   1.399       .  A
C564        F571   1.358       .  S
C565        C566   1.401       .  A
C565        H570   1.082       .  S
C566        C567   1.414   1_545  A
C567        F568   1.358       .  S
C572        C573   1.396       .  A
C572        C577   1.387       .  A
C572        H579   1.084       .  S
C574        C575   1.394       .  A
C574        F581   1.358       .  S
C575        H580   1.084       .  S
C576        C577   1.408       .  A
C577        F578   1.356       .  S
C582       C1411   1.400   1_455  A
C582        C587   1.388       .  A
C582        H589   1.084       .  S
C583       C1410   1.401       .  A
C583        C584   1.413       .  A
C584        C585   1.399       .  A
C584        F591   1.357       .  S
C585       C1414   1.399       .  A
C585        H590   1.083       .  S
C586       C1413   1.398       .  A
C586        C587   1.412   1_655  A
C587        F588   1.359       .  S
C592        C593   1.407       .  A
C592        C597   1.405   1_655  A
C592        H599   1.083   1_655  S
C593       C1422   1.402       .  A
C594       C1421   1.402       .  A
C594        C595   1.390       .  A
C594        F601   1.357       .  S
C595       C1424   1.408       .  A
C595        H600   1.083       .  S
C596       C1423   1.408       .  A
C596        C597   1.408   1_655  A
C597        F598   1.357       .  S
C602        C603   1.402       .  A
C602        C607   1.388       .  A
C602        H609   1.083       .  S
C603       C1432   1.412       .  A
C604       C1431   1.411       .  A
C604        C605   1.407   1_655  A
C604        F611   1.357       .  S
C605        C606   1.405       .  A
C605        H610   1.083   1_455  S
C606       C1435   1.404       .  A
C607       C1434   1.407       .  A
C607        F608   1.359       .  S
C612       C1441   1.400       .  A
C612        C617   1.393       .  A
C612        H619   1.083       .  S
C613       C1440   1.392       .  A
C613        C614   1.415       .  A
C614        C615   1.389       .  A
C614        F621   1.359       .  S
C615        C616   1.395       .  A
C615        H620   1.084       .  S
C616       C1445   1.413       .  A
C617       C1444   1.409   1_655  A
C617        F618   1.358       .  S
O622        C630   1.290       .  A
O622       Co642   2.026       .  S
O623        C631   1.258   1_545  A
O623       Co643   1.962       .  S
O624        C632   1.275       .  A
O624       Co644   2.010       .  S
O625        C633   1.253   1_565  A
O625       Co645   2.038       .  S
O626       C1460   1.270   1_455  A
O627      Co1470   2.005   1_455  S
O628        C631   1.274       .  A
O628       Co645   2.039       .  S
O629        C630   1.280       .  A
O629       Co644   2.025       .  S
C630        C820   1.480       .  S
C631        C760   1.485       .  S
C632       O1454   1.270       .  A
C632        C790   1.473       .  S
C633        C773   1.483       .  S
O634       C1475   1.285       .  A
O635      Co1471   2.035       .  S
O636        C649   1.241       .  A
O636       Co644   1.974       .  S
O637        C650   1.271       .  A
O637       Co645   1.967   1_655  S
O638        C650   1.277   1_455  A
O638       Co643   2.007   1_565  S
O639        C649   1.248       .  A
O639       Co642   2.004       .  S
O640        C647   1.291       .  A
O640       Co645   1.998       .  S
O641        C648   1.248       .  A
O641       Co644   1.952       .  S
Co642      O1455   1.997       .  S
Co642      O1474   1.999       .  S
Co643      O1463   2.029   1_455  S
Co644      O1474   2.034       .  S
O646      Co1470   1.997       .  S
O646      Co1472   2.036       .  S
C647       O1462   1.280       .  A
C647        C813   1.471       .  S
C648        C750   1.484       .  S
C649        C780   1.469       .  S
C650        C800   1.471       .  S
O651        C659   1.261       .  A
O651       Co671   1.971       .  S
O652        C660   1.268   1_655  A
O652       Co672   1.859       .  S
O653        C661   1.267       .  A
O653       Co673   1.989       .  S
O654        C662   1.244   1_455  A
O654       Co674   1.933       .  S
O655      Co1500   2.005       .  S
O656       C1490   1.269       .  A
O657        C660   1.307       .  A
O657       Co674   2.115       .  S
O658        C659   1.271       .  A
O658       Co673   2.006       .  S
C659        C720   1.481       .  S
C660        C803   1.484   1_455  S
C661        C710   1.495       .  S
C662       O1484   1.268       .  A
C662        C793   1.471       .  S
O663      Co1499   1.868       .  S
O664       C1505   1.268       .  A
O665        C678   1.265       .  A
O665       Co673   1.966       .  S
O666        C679   1.245       .  A
O666       Co674   1.943       .  S
O667        C679   1.273   1_554  A
O667       Co672   2.042   1_454  S
O668        C678   1.274       .  A
O668       Co671   2.004       .  S
O669        C676   1.305       .  A
O669       Co674   2.109       .  S
O670        C677   1.266       .  A
O670       Co673   1.992       .  S
Co671      O1491   1.874       .  S
Co671      O1296   1.921       .  S
Co672      O1483   2.008       .  S
Co672       O675   1.916   1_556  S
Co673      O1296   2.027       .  S
Co674       O675   2.117   1_456  S
O675      Co1292   1.916   1_554  S
O675      Co1294   2.033       .  S
C676        C743   1.484       .  S
C677       O1492   1.271       .  A
C677        C810   1.489       .  S
C678        C823   1.474       .  S
C679        C730   1.494   1_556  S
O680        C688   1.259       .  A
O680       Co700   1.960       .  S
O681        C689   1.266   1_554  A
O681       Co701   1.874       .  S
O682        C690   1.274       .  A
O682       Co702   2.018       .  S
O683        C691   1.261       .  A
O683       Co703   2.004       .  S
O686        C689   1.305       .  A
O686       Co703   2.147       .  S
O687        C688   1.275       .  A
O687       Co702   2.033       .  S
C688        C783   1.482       .  S
C689        C733   1.484   1_556  S
C690        C770   1.491       .  S
C691        C713   1.476       .  S
O694        C707   1.259       .  A
O694       Co702   1.954       .  S
O695        C708   1.268       .  A
O695       Co703   1.897       .  S
O696        C708   1.299       .  A
O696       Co701   2.117   1_556  S
O697        C707   1.277       .  A
O697       Co700   2.039       .  S
O698        C705   1.280   1_545  A
O698       Co703   1.998   1_545  S
O699        C706   1.258       .  A
O699       Co702   1.969       .  S
C705        C753   1.487   1_565  S
C706        C740   1.474       .  S
C707        C723   1.484       .  S
C708        C763   1.486       .  S
C709        C710   1.411       .  A
C709        C714   1.397       .  A
C709        H716   1.083       .  S
C711        C712   1.403       .  A
C711        F718   1.356       .  S
C712        C713   1.408       .  A
C712        H717   1.083       .  S
C714        F715   1.358       .  S
C719        C720   1.401       .  A
C719        C724   1.400       .  A
C720        C721   1.412       .  A
C721        C722   1.396       .  A
C721        F728   1.358       .  S
C722        C723   1.402       .  A
C722        H727   1.082       .  S
C723        C724   1.414       .  A
C729        C730   1.415   1_556  A
C729        C734   1.407       .  A
C729        H736   1.083       .  S
C730        C731   1.402       .  A
C731        C732   1.400       .  A
C731        F738   1.351       .  S
C732        C733   1.406       .  A
C732        H737   1.084       .  S
C733        C734   1.405   1_554  A
C734        F735   1.358       .  S
C739        C744   1.392       .  A
C739        H746   1.084       .  S
C740        C741   1.410       .  A
C741        C742   1.403       .  A
C741        F748   1.358       .  S
C742        H747   1.084       .  S
C743        C744   1.415       .  A
C744        F745   1.358       .  S
C749        C750   1.399       .  A
C749        C754   1.397       .  A
C749        H756   1.083       .  S
C751        C752   1.401       .  A
C751        F758   1.357       .  S
C752        C753   1.401       .  A
C752        H757   1.083       .  S
C754        F755   1.356       .  S
C759        C760   1.404       .  A
C759        C764   1.409       .  A
C759        H766   1.079       .  S
C760        C761   1.411   1_565  A
C761        C762   1.394       .  A
C761        F768   1.359       .  S
C762        C763   1.402   1_545  A
C762        H767   1.080       .  S
C763        C764   1.413       .  A
C764        F765   1.357       .  S
C769        C770   1.404       .  A
C769        H776   1.083       .  S
C771        C772   1.399       .  A
C771        F778   1.358       .  S
C772        C773   1.399       .  A
C772        H777   1.083       .  S
C773        C774   1.413   1_545  A
C774        F775   1.358       .  S
C779        C780   1.399       .  A
C779        C784   1.397       .  A
C779        H786   1.084       .  S
C781        C782   1.389       .  A
C781        F788   1.358       .  S
C782        H787   1.084       .  S
C783        C784   1.411       .  A
C784        F785   1.356       .  S
C789       C1618   1.398   1_455  A
C789        C794   1.394       .  A
C789        H796   1.083       .  S
C790       C1617   1.398       .  A
C790        C791   1.412       .  A
C791        C792   1.399       .  A
C791        F798   1.357       .  S
C792       C1621   1.398       .  A
C792        H797   1.083       .  S
C793       C1620   1.397       .  A
C793        C794   1.415   1_655  A
C794        F795   1.359       .  S
C799        C800   1.407       .  A
C799        C804   1.405       .  A
C799        H806   1.083   1_655  S
C800       C1629   1.401       .  A
C801       C1628   1.398       .  A
C801        C802   1.385       .  A
C801        F808   1.354       .  S
C802       C1631   1.407       .  A
C802        H807   1.083       .  S
C803       C1630   1.409       .  A
C803        C804   1.408       .  A
C804        F805   1.357   1_655  S
C809        C810   1.403       .  A
C809        C814   1.395       .  A
C809        H816   1.083       .  S
C810       C1639   1.413       .  A
C811       C1638   1.411   1_655  A
C811        C812   1.405   1_655  A
C811        F818   1.357       .  S
C812        C813   1.404       .  A
C812        H817   1.083       .  S
C813       C1642   1.405       .  A
C814       C1641   1.410       .  A
C814        F815   1.359       .  S
C819       C1648   1.400   1_655  A
C819        C824   1.394   1_655  A
C819        H826   1.084       .  S
C820       C1647   1.400       .  A
C820        C821   1.412       .  A
C821        C822   1.403       .  A
C821        F828   1.358       .  S
C822        C823   1.403       .  A
C822        H827   1.084       .  S
C823       C1652   1.409       .  A
C824       C1651   1.409       .  A
C824        F825   1.358   1_455  S
O829        C837   1.291   1_455  A
O829       Co849   2.026   1_445  S
O830        C838   1.258       .  A
O830       Co850   1.960       .  S
O831        C839   1.271       .  A
O831       Co851   1.999       .  S
O832        C840   1.264       .  A
O832       Co852   2.051       .  S
O833      Co1264   1.968       .  S
O834       C1254   1.260       .  A
O835        C838   1.273       .  A
O835       Co852   2.033       .  S
O836        C837   1.279       .  A
O836       Co851   2.011       .  S
C837       C1027   1.474   1_655  S
C838        C967   1.482       .  S
C839        C997   1.472       .  S
C840       O1248   1.241       .  A
C840        C980   1.469       .  S
O841      Co1263   1.939   1_455  S
O842       C1269   1.265       .  A
O843        C856   1.241       .  A
O843       Co851   1.958       .  S
O844        C857   1.271       .  A
O844       Co852   1.952       .  S
O845        C857   1.283       .  A
O845       Co850   2.015       .  S
O846        C856   1.250   1_565  A
O846       Co849   2.004       .  S
O847        C854   1.278       .  A
O847       Co852   1.947       .  S
O848        C855   1.248       .  A
O848       Co851   1.944       .  S
Co849      O1255   1.944   1_655  S
Co850      O1247   1.971       .  S
Co850      O1267   2.020       .  S
Co852      O1267   2.021       .  S
O853      Co1264   2.020       .  S
O853      Co1266   2.104   1_545  S
C854       C1020   1.486       .  S
C855       O1256   1.267       .  A
C855        C957   1.484       .  S
C856        C987   1.472       .  S
C857       C1007   1.460       .  S
O858        C866   1.263       .  A
O858       Co878   1.979   1_654  S
O859        C867   1.267       .  A
O859       Co879   1.849       .  S
O860        C868   1.268   1_554  A
O860       Co880   1.992       .  S
O861        C869   1.245       .  A
O861       Co881   1.928       .  S
O862       C1075   1.272       .  A
O863      Co1085   2.021   1_655  S
O864        C867   1.305       .  A
O864       Co881   2.106       .  S
O865        C866   1.269       .  A
O865       Co880   1.998       .  S
C866        C927   1.478       .  S
C867       C1010   1.473       .  S
C868       O1069   1.271       .  A
C868        C917   1.495       .  S
C869       C1000   1.470       .  S
O870       C1090   1.267       .  A
O871      Co1086   1.997   1_554  S
O872        C885   1.264   1_655  A
O872       Co880   1.967       .  S
O873        C886   1.245       .  A
O873       Co881   1.943       .  S
O874        C886   1.272       .  A
O874       Co879   2.037       .  S
O875        C885   1.270       .  A
O875       Co878   1.997   1_554  S
O876        C883   1.306       .  A
O876       Co881   2.115       .  S
O877        C884   1.264       .  A
O877       Co880   1.979       .  S
Co878      O1070   2.018   1_455  S
Co879      O1078   1.980       .  S
Co879       O882   1.907       .  S
Co881       O882   2.111       .  S
C883       O1077   1.265       .  A
C883        C950   1.494       .  S
C884       C1017   1.476       .  S
C885       C1030   1.468       .  S
C886        C937   1.491       .  S
O887        C895   1.254   1_565  A
O887       Co907   1.945       .  S
O888        C896   1.266       .  A
O888       Co908   1.875       .  S
O889        C897   1.270       .  A
O889       Co909   2.001       .  S
O890        C898   1.262       .  A
O890       Co910   2.012       .  S
O891       C1311   1.270       .  A
O891      Co1115   1.990       .  S
O892       C1105   1.259   1_554  A
O892      Co1321   1.981       .  S
O893        C896   1.304       .  A
O893       Co910   2.139       .  S
O894        C895   1.277       .  A
O894       Co909   2.049       .  S
C895        C990   1.482       .  S
C896        C940   1.481       .  S
C897       O1305   1.270   1_545  A
C897        C977   1.481       .  S
C898       O1099   1.259       .  A
C898        C920   1.485       .  S
O899       C1326   1.275       .  A
O899      Co1114   2.002       .  S
O900       C1120   1.269       .  A
O900      Co1322   2.017   1_545  S
O901        C914   1.257   1_556  A
O901       Co909   1.950   1_556  S
O902        C915   1.267       .  A
O902       Co910   1.896       .  S
O903        C915   1.299       .  A
O903       Co908   2.115       .  S
O904        C914   1.276       .  A
O904       Co907   2.042   1_545  S
O905        C912   1.277       .  A
O905       Co910   1.989       .  S
O906        C913   1.260       .  A
O906       Co909   1.970   1_556  S
Co907      O1306   1.979       .  S
Co907      O1106   2.005   1_554  S
Co907      O1118   2.017       .  S
Co908      O1098   1.987       .  S
Co908      O1314   2.004       .  S
Co908      O1325   1.985       .  S
Co909      O1118   2.051   1_545  S
Co910      O1325   2.018       .  S
O911      Co1114   2.017       .  S
O911      Co1322   1.985       .  S
O911      Co1116   2.053   1_565  S
O911      Co1324   2.018       .  S
C912       O1313   1.274       .  A
C912        C960   1.478       .  S
C913       O1107   1.269   1_556  A
C913        C947   1.476       .  S
C914        C930   1.484       .  S
C915        C970   1.482       .  S
C916        C917   1.412   1_554  A
C916        C921   1.399       .  A
C916        H923   1.083       .  S
C917       C1125   1.409       .  A
C918       C1124   1.409       .  A
C918        C919   1.409       .  A
C918        F925   1.357       .  S
C919        C920   1.410       .  A
C919        H924   1.083       .  S
C920       C1128   1.403       .  A
C921       C1127   1.403   1_554  A
C921        F922   1.358       .  S
C926        C927   1.400       .  A
C926        C931   1.399       .  A
C926       H1140   1.083   1_554  S
C927        C928   1.410       .  A
C928        C929   1.397       .  A
C928        F935   1.358       .  S
C929        C930   1.403       .  A
C929        H934   1.083       .  S
C930        C931   1.415       .  A
C931       F1139   1.358   1_554  S
F932       C1138   1.358       .  S
H933       C1133   1.083       .  S
C936        C937   1.415       .  A
C936        C941   1.406       .  A
C936        H943   1.083       .  S
C937        C938   1.401       .  A
C938        C939   1.398       .  A
C938        F945   1.351       .  S
C939        C940   1.404       .  A
C939        H944   1.084       .  S
C940        C941   1.405       .  A
C941        F942   1.359       .  S
C946       C1154   1.400       .  A
C946        C951   1.398       .  A
C946        H953   1.085       .  S
C947       C1153   1.400       .  A
C947        C948   1.409       .  A
C948        C949   1.404       .  A
C948        F955   1.358   1_556  S
C949       C1157   1.405       .  A
C949        H954   1.079       .  S
C950       C1156   1.406       .  A
C950        C951   1.415       .  A
C951        F952   1.358       .  S
C956        C957   1.401       .  A
C956        C961   1.399       .  A
C956        H963   1.083       .  S
C957       C1372   1.416       .  A
C958       C1371   1.415       .  A
C958        C959   1.397       .  A
C958        F965   1.358       .  S
C959        C960   1.398       .  A
C959        H964   1.083       .  S
C960       C1375   1.413       .  A
C961       C1374   1.411       .  A
C961        F962   1.355       .  S
C966        C967   1.403       .  A
C966        C971   1.405       .  A
C966        H973   1.084       .  S
C967        C968   1.412       .  A
C968        C969   1.393       .  A
C968        F975   1.358       .  S
C969        C970   1.400       .  A
C969        H974   1.085       .  S
C970        C971   1.412       .  A
C971        F972   1.357       .  S
C976        C977   1.402   1_565  A
C976       C1395   1.405       .  A
C976        H983   1.083       .  S
C977       C1392   1.411       .  A
C978       C1391   1.410       .  A
C978        C979   1.389       .  A
C978        F985   1.359       .  S
C979        C980   1.401       .  A
C979        H984   1.084       .  S
C980        C981   1.405       .  A
C981       C1390   1.405       .  A
C981        F982   1.357       .  S
C986        C987   1.408       .  A
C986        C991   1.403       .  A
C986        H993   1.084       .  S
C987       C1402   1.397   1_545  A
C988       C1401   1.399       .  A
C988        C989   1.391       .  A
C988        F995   1.357       .  S
C989       C1404   1.407       .  A
C989        H994   1.084       .  S
C990       C1403   1.412   1_545  A
C990        C991   1.404       .  A
C991        F992   1.357       .  S
C996       C1001   1.391       .  A
C996       H1003   1.083       .  S
C997        C998   1.412       .  A
C998        C999   1.396       .  A
C998       F1005   1.357       .  S
C999       H1004   1.083       .  S
C1000      C1001   1.415       .  A
C1001      F1002   1.358       .  S
C1006      C1007   1.405       .  A
C1006      C1011   1.399       .  A
C1006      H1013   1.083       .  S
C1008      C1009   1.388       .  A
C1008      F1015   1.357       .  S
C1009      H1014   1.083       .  S
C1010      C1011   1.405       .  A
C1011      F1012   1.357       .  S
C1016      C1017   1.401   1_455  A
C1016      C1021   1.387       .  A
C1016      H1023   1.084       .  S
C1018      C1019   1.409       .  A
C1018      F1025   1.356       .  S
C1019      C1020   1.403       .  A
C1019      H1024   1.083       .  S
C1021      F1022   1.359       .  S
C1026      C1031   1.398       .  A
C1026      H1033   1.084       .  S
C1027      C1028   1.409       .  A
C1028      C1029   1.401       .  A
C1028      F1035   1.358       .  S
C1029      C1030   1.403       .  A
C1029      H1034   1.084       .  S
C1031      F1032   1.358       .  S
O1036      C1044   1.291   1_455  A
O1036     Co1056   2.031   1_545  S
O1037      C1045   1.259       .  A
O1037     Co1057   1.965       .  S
O1038      C1046   1.272       .  A
O1038     Co1058   2.000       .  S
O1039      C1047   1.252       .  A
O1039     Co1059   2.035       .  S
O1040     Co1471   1.973       .  S
O1041      C1461   1.235   1_545  A
O1042      C1045   1.273       .  A
O1042     Co1059   2.039       .  S
O1043      C1044   1.278       .  A
O1043     Co1058   2.011       .  S
C1044      C1234   1.478   1_655  S
C1045      C1174   1.486       .  S
C1046      C1204   1.468       .  S
C1047      O1455   1.262       .  A
C1047      C1187   1.480       .  S
O1048     Co1470   1.941   1_455  S
O1049      C1476   1.266       .  A
O1050      C1063   1.241       .  A
O1050     Co1058   1.959       .  S
O1051      C1064   1.269       .  A
O1051     Co1059   1.961       .  S
O1052      C1064   1.278       .  A
O1052     Co1057   2.008       .  S
O1053      C1063   1.252       .  A
O1053     Co1056   2.009   1_645  S
O1054      C1061   1.289       .  A
O1054     Co1059   2.001       .  S
O1055      C1062   1.248       .  A
O1055     Co1058   1.946       .  S
Co1056     O1462   1.949       .  S
Co1057     O1454   1.962       .  S
Co1057     O1474   2.021       .  S
Co1059     O1474   2.102       .  S
O1060     Co1471   2.023       .  S
O1060     Co1473   2.040   1_545  S
C1061      C1227   1.470       .  S
C1062      O1463   1.266       .  A
C1062      C1164   1.484       .  S
C1063      C1194   1.471       .  S
C1064      C1214   1.465       .  S
O1065      C1073   1.262       .  A
O1065     Co1085   1.973   1_655  S
O1066      C1074   1.270       .  A
O1066     Co1086   1.867       .  S
O1067      C1075   1.267       .  A
O1067     Co1087   1.985       .  S
O1068      C1076   1.246       .  A
O1068     Co1088   1.942       .  S
O1071      C1074   1.303       .  A
O1071     Co1088   2.099       .  S
O1072      C1073   1.269       .  A
O1072     Co1087   1.999       .  S
C1073      C1134   1.479       .  S
C1074      C1217   1.479       .  S
C1075      C1124   1.495       .  S
C1076      C1207   1.477       .  S
O1079      C1092   1.264   1_655  A
O1079     Co1087   1.963       .  S
O1080      C1093   1.245       .  A
O1080     Co1088   1.945       .  S
O1081      C1093   1.267   1_554  A
O1081     Co1086   2.023   1_554  S
O1082      C1092   1.271       .  A
O1082     Co1085   1.999       .  S
O1083      C1090   1.303       .  A
O1083     Co1088   2.104       .  S
O1084      C1091   1.264       .  A
O1084     Co1087   1.983       .  S
Co1086     O1089   1.917   1_556  S
Co1088     O1089   2.120   1_556  S
C1090      C1157   1.480       .  S
C1091      C1224   1.475       .  S
C1092      C1237   1.471       .  S
C1093      C1144   1.484   1_556  S
O1094      C1102   1.254   1_565  A
O1094     Co1114   1.947       .  S
O1095      C1103   1.267   1_554  A
O1095     Co1115   1.868       .  S
O1096      C1104   1.271       .  A
O1096     Co1116   1.999       .  S
O1097      C1105   1.263       .  A
O1097     Co1117   2.013       .  S
O1098      C1518   1.270       .  A
O1099     Co1528   1.975       .  S
O1100      C1103   1.303       .  A
O1100     Co1117   2.134       .  S
O1101      C1102   1.276       .  A
O1101     Co1116   2.049       .  S
C1102      C1197   1.486       .  S
C1103      C1147   1.475   1_556  S
C1104      O1512   1.269   1_545  A
C1104      C1184   1.479       .  S
C1105      C1127   1.485       .  S
O1106      C1533   1.275       .  A
O1107     Co1529   2.013   1_545  S
O1108      C1121   1.257       .  A
O1108     Co1116   1.947       .  S
O1109      C1122   1.268       .  A
O1109     Co1117   1.899       .  S
O1110      C1122   1.300       .  A
O1110     Co1115   2.117   1_556  S
O1111      C1121   1.278       .  A
O1111     Co1114   2.044   1_545  S
O1112      C1119   1.279       .  A
O1112     Co1117   1.993       .  S
O1113      C1120   1.261       .  A
O1113     Co1116   1.980       .  S
Co1114     O1513   1.979       .  S
Co1115     O1521   2.011       .  S
Co1115     O1532   1.979       .  S
Co1117     O1532   2.007   1_556  S
O1118     Co1529   1.990       .  S
O1118     Co1531   2.012   1_554  S
C1119      O1520   1.275       .  A
C1119      C1167   1.485       .  S
C1120      C1154   1.488       .  S
C1121      C1137   1.482       .  S
C1122      C1177   1.490       .  S
C1123      C1124   1.412       .  A
C1123      C1128   1.394       .  A
C1123      H1130   1.083       .  S
C1125      C1126   1.406       .  A
C1125      F1132   1.357       .  S
C1126      C1127   1.409       .  A
C1126      H1131   1.083       .  S
C1128      F1129   1.358       .  S
C1133      C1134   1.401       .  A
C1133      C1138   1.399       .  A
C1134      C1135   1.412       .  A
C1135      C1136   1.395       .  A
C1135      F1142   1.358       .  S
C1136      C1137   1.401       .  A
C1136      H1141   1.083       .  S
C1137      C1138   1.415       .  A
C1143      C1144   1.412   1_556  A
C1143      C1148   1.402       .  A
C1143      H1150   1.083       .  S
C1144      C1145   1.403       .  A
C1145      C1146   1.395       .  A
C1145      F1152   1.354       .  S
C1146      C1147   1.404       .  A
C1146      H1151   1.084       .  S
C1147      C1148   1.404   1_554  A
C1148      F1149   1.358       .  S
C1153      C1158   1.397       .  A
C1153      H1160   1.074       .  S
C1154      C1155   1.412       .  A
C1155      C1156   1.407       .  A
C1155      F1162   1.358       .  S
C1156      H1161   1.084       .  S
C1157      C1158   1.409       .  A
C1158      F1159   1.358       .  S
C1163      C1164   1.401       .  A
C1163      C1168   1.399       .  A
C1163      H1170   1.083       .  S
C1164      C1579   1.415       .  A
C1165      C1578   1.414       .  A
C1165      C1166   1.399       .  A
C1165      F1172   1.357       .  S
C1166      C1167   1.400       .  A
C1166      H1171   1.083       .  S
C1167      C1582   1.414       .  A
C1168      C1581   1.413       .  A
C1168      F1169   1.356       .  S
C1173      C1174   1.405       .  A
C1173      C1178   1.410       .  A
C1173      H1180   1.085       .  S
C1174      C1175   1.410       .  A
C1175      C1176   1.394       .  A
C1175      F1182   1.358       .  S
C1176      C1177   1.403       .  A
C1176      H1181   1.085       .  S
C1177      C1178   1.414       .  A
C1178      F1179   1.357       .  S
C1183      C1184   1.406   1_565  A
C1183      C1602   1.403       .  A
C1183      H1190   1.083       .  S
C1184      C1599   1.411       .  A
C1185      C1598   1.412       .  A
C1185      C1186   1.397       .  A
C1185      F1192   1.358       .  S
C1186      C1187   1.400       .  A
C1186      H1191   1.083       .  S
C1187      C1188   1.412       .  A
C1188      C1597   1.404       .  A
C1188      F1189   1.357       .  S
C1193      C1194   1.406       .  A
C1193      C1198   1.402       .  A
C1193      H1200   1.084       .  S
C1194      C1609   1.397   1_545  A
C1195      C1608   1.398       .  A
C1195      C1196   1.396       .  A
C1195      F1202   1.357       .  S
C1196      C1611   1.411       .  A
C1196      H1201   1.084       .  S
C1197      C1610   1.413   1_545  A
C1197      C1198   1.406       .  A
C1198      F1199   1.357       .  S
C1203      C1208   1.397       .  A
C1203      H1210   1.083       .  S
C1204      C1205   1.412       .  A
C1205      C1206   1.395       .  A
C1205      F1212   1.357       .  S
C1206      H1211   1.083       .  S
C1207      C1208   1.414       .  A
C1208      F1209   1.359       .  S
C1213      C1214   1.406       .  A
C1213      C1218   1.403       .  A
C1213      H1220   1.083       .  S
C1215      C1216   1.388       .  A
C1215      F1222   1.355       .  S
C1216      H1221   1.083       .  S
C1217      C1218   1.408       .  A
C1218      F1219   1.357       .  S
C1223      C1224   1.401   1_455  A
C1223      C1228   1.387       .  A
C1223      H1230   1.084       .  S
C1225      C1226   1.406       .  A
C1225      F1232   1.357       .  S
C1226      C1227   1.404       .  A
C1226      H1231   1.083       .  S
C1228      F1229   1.359       .  S
C1233      C1238   1.393       .  A
C1233      H1240   1.084       .  S
C1234      C1235   1.411       .  A
C1235      C1236   1.402       .  A
C1235      F1242   1.357       .  S
C1236      C1237   1.403       .  A
C1236      H1241   1.084       .  S
C1238      F1239   1.357       .  S
O1243      C1251   1.290   1_455  A
O1243     Co1263   2.026   1_455  S
O1244      C1252   1.260   1_545  A
O1244     Co1264   1.965       .  S
O1245      C1253   1.275       .  A
O1245     Co1265   2.013       .  S
O1246      C1254   1.252   1_565  A
O1246     Co1266   2.040       .  S
O1249      C1252   1.273       .  A
O1249     Co1266   2.031       .  S
O1250      C1251   1.278       .  A
O1250     Co1265   2.012       .  S
C1251      C1441   1.476       .  S
C1252      C1381   1.484       .  S
C1253      C1411   1.474       .  S
C1254      C1394   1.480       .  S
O1257      C1270   1.241       .  A
O1257     Co1265   1.959       .  S
O1258      C1271   1.271       .  A
O1258     Co1266   1.968       .  S
O1259      C1271   1.277       .  A
O1259     Co1264   2.009   1_565  S
O1260      C1270   1.252       .  A
O1260     Co1263   1.999       .  S
O1261      C1268   1.290       .  A
O1261     Co1266   2.003       .  S
O1262      C1269   1.245       .  A
O1262     Co1265   1.941       .  S
C1268      C1434   1.474       .  S
C1269      C1371   1.481       .  S
C1270      C1401   1.474       .  S
C1271      C1421   1.472       .  S
O1272      C1280   1.259       .  A
O1272     Co1292   1.966   1_554  S
O1273      C1281   1.269       .  A
O1273     Co1293   1.867       .  S
O1274      C1282   1.265   1_554  A
O1274     Co1294   1.981       .  S
O1275      C1283   1.245       .  A
O1275     Co1295   1.939       .  S
O1276      C1489   1.271       .  A
O1277     Co1499   2.024   1_655  S
O1278      C1281   1.305       .  A
O1278     Co1295   2.107       .  S
O1279      C1280   1.271       .  A
O1279     Co1294   2.009       .  S
C1280      C1341   1.481       .  S
C1281      C1424   1.483       .  S
C1282      O1483   1.270       .  A
C1282      C1331   1.492       .  S
C1283      C1414   1.477       .  S
O1284      C1504   1.266       .  A
O1285     Co1500   1.980   1_554  S
O1286      C1299   1.264   1_655  A
O1286     Co1294   1.961       .  S
O1287      C1300   1.246       .  A
O1287     Co1295   1.944       .  S
O1288      C1300   1.269       .  A
O1288     Co1293   2.029       .  S
O1289      C1299   1.274       .  A
O1289     Co1292   2.001   1_454  S
O1290      C1297   1.304       .  A
O1290     Co1295   2.102       .  S
O1291      C1298   1.266       .  A
O1291     Co1294   1.987       .  S
Co1292     O1484   2.018       .  S
Co1293     O1492   1.995       .  S
Co1293     O1296   1.917       .  S
Co1295     O1296   2.118       .  S
C1297      O1491   1.267       .  A
C1297      C1364   1.480       .  S
C1298      C1431   1.479       .  S
C1299      C1444   1.471       .  S
C1300      C1351   1.486       .  S
O1301      C1309   1.250       .  A
O1301     Co1321   1.943       .  S
O1302      C1310   1.266       .  A
O1302     Co1322   1.877       .  S
O1303      C1311   1.268       .  A
O1303     Co1323   1.994       .  S
O1304      C1312   1.262       .  A
O1304     Co1324   2.010       .  S
O1305     Co1529   1.989       .  S
O1306      C1519   1.259   1_554  A
O1307      C1310   1.302       .  A
O1307     Co1324   2.130       .  S
O1308      C1309   1.276       .  A
O1308     Co1323   2.050       .  S
C1309      C1404   1.467       .  S
C1310      C1354   1.476       .  S
C1311      C1391   1.476       .  S
C1312      O1513   1.259       .  A
C1312      C1334   1.482       .  S
O1313     Co1528   1.999       .  S
O1314      C1534   1.267       .  A
O1315      C1328   1.254       .  A
O1315     Co1323   1.941       .  S
O1316      C1329   1.268       .  A
O1316     Co1324   1.899       .  S
O1317      C1329   1.298       .  A
O1317     Co1322   2.107       .  S
O1318      C1328   1.279       .  A
O1318     Co1321   2.052       .  S
O1319      C1326   1.277   1_545  A
O1319     Co1324   1.986   1_545  S
O1320      C1327   1.261       .  A
O1320     Co1323   1.977   1_556  S
Co1321     O1520   2.003   1_554  S
Co1321     O1532   2.012       .  S
Co1322     O1512   1.982       .  S
Co1323     O1532   2.051       .  S
O1325     Co1528   2.012       .  S
O1325     Co1530   2.055       .  S
C1326      C1374   1.477   1_565  S
C1327      O1521   1.269   1_556  A
C1327      C1361   1.484       .  S
C1328      C1344   1.483       .  S
C1329      C1384   1.480       .  S
C1330      C1331   1.412   1_554  A
C1330      C1335   1.395       .  A
C1330      H1337   1.083       .  S
C1331      C1539   1.409       .  A
C1332      C1538   1.408       .  A
C1332      C1333   1.406       .  A
C1332      F1339   1.357       .  S
C1333      C1334   1.409       .  A
C1333      H1338   1.083       .  S
C1334      C1542   1.402       .  A
C1335      C1541   1.401   1_554  A
C1335      F1336   1.358       .  S
C1340      C1341   1.399       .  A
C1340      C1345   1.399       .  A
C1340      H1554   1.083   1_554  S
C1341      C1342   1.414       .  A
C1342      C1343   1.397       .  A
C1342      F1349   1.358       .  S
C1343      C1344   1.400       .  A
C1343      H1348   1.083       .  S
C1344      C1345   1.417       .  A
C1345      F1553   1.358   1_554  S
F1346      C1552   1.358       .  S
H1347      C1547   1.083       .  S
C1350      C1351   1.413       .  A
C1350      C1355   1.402       .  A
C1350      H1357   1.083       .  S
C1351      C1352   1.403       .  A
C1352      C1353   1.399       .  A
C1352      F1359   1.355       .  S
C1353      C1354   1.404       .  A
C1353      H1358   1.084       .  S
C1354      C1355   1.404       .  A
C1355      F1356   1.358       .  S
C1360      C1568   1.398       .  A
C1360      C1365   1.393       .  A
C1360      H1367   1.085       .  S
C1361      C1567   1.400       .  A
C1361      C1362   1.412       .  A
C1362      C1363   1.405       .  A
C1362      F1369   1.358   1_556  S
C1363      C1571   1.406       .  A
C1363      H1368   1.084       .  S
C1364      C1570   1.405       .  A
C1364      C1365   1.411       .  A
C1365      F1366   1.357       .  S
C1370      C1371   1.399       .  A
C1370      C1375   1.398       .  A
C1370      H1377   1.083       .  S
C1372      C1373   1.396       .  A
C1372      F1379   1.358       .  S
C1373      C1374   1.397       .  A
C1373      H1378   1.084       .  S
C1375      F1376   1.356       .  S
C1380      C1381   1.405       .  A
C1380      C1385   1.406       .  A
C1380      H1387   1.086       .  S
C1381      C1382   1.412   1_565  A
C1382      C1383   1.391       .  A
C1382      F1389   1.358       .  S
C1383      C1384   1.399   1_545  A
C1383      H1388   1.087       .  S
C1384      C1385   1.412       .  A
C1385      F1386   1.357       .  S
C1390      C1391   1.405       .  A
C1390      H1397   1.083       .  S
C1392      C1393   1.395       .  A
C1392      F1399   1.358       .  S
C1393      C1394   1.400       .  A
C1393      H1398   1.083       .  S
C1394      C1395   1.413   1_545  A
C1395      F1396   1.358       .  S
C1400      C1401   1.413       .  A
C1400      C1405   1.402       .  A
C1400      H1407   1.083       .  S
C1402      C1403   1.397       .  A
C1402      F1409   1.357       .  S
C1403      H1408   1.083       .  S
C1404      C1405   1.399       .  A
C1405      F1406   1.357       .  S
C1410      C1415   1.396       .  A
C1410      H1417   1.083       .  S
C1411      C1412   1.413       .  A
C1412      C1413   1.400       .  A
C1412      F1419   1.357       .  S
C1413      H1418   1.083       .  S
C1414      C1415   1.414       .  A
C1415      F1416   1.359       .  S
C1420      C1421   1.407       .  A
C1420      C1425   1.405       .  A
C1420      H1427   1.083       .  S
C1422      C1423   1.390       .  A
C1422      F1429   1.357       .  S
C1423      H1428   1.083       .  S
C1424      C1425   1.408       .  A
C1425      F1426   1.357       .  S
C1430      C1431   1.401   1_455  A
C1430      C1435   1.388       .  A
C1430      H1437   1.084       .  S
C1432      C1433   1.406       .  A
C1432      F1439   1.357       .  S
C1433      C1434   1.404       .  A
C1433      H1438   1.083       .  S
C1435      F1436   1.359       .  S
C1440      C1445   1.393       .  A
C1440      H1447   1.083       .  S
C1441      C1442   1.410   1_655  A
C1442      C1443   1.402       .  A
C1442      F1449   1.358       .  S
C1443      C1444   1.403       .  A
C1443      H1448   1.083       .  S
C1445      F1446   1.357       .  S
O1450      C1458   1.290   1_455  A
O1450     Co1470   2.025   1_455  S
O1451      C1459   1.257   1_545  A
O1451     Co1471   1.956       .  S
O1452      C1460   1.271       .  A
O1452     Co1472   1.993       .  S
O1453      C1461   1.264       .  A
O1453     Co1473   2.060       .  S
O1456      C1459   1.271       .  A
O1456     Co1473   2.030       .  S
O1457      C1458   1.279       .  A
O1457     Co1472   2.019       .  S
C1458      C1648   1.478   1_655  S
C1459      C1588   1.475       .  S
C1460      C1618   1.469       .  S
C1461      C1601   1.469       .  S
O1464      C1477   1.242       .  A
O1464     Co1472   1.959       .  S
O1465      C1478   1.269       .  A
O1465     Co1473   1.952       .  S
O1466      C1478   1.282       .  A
O1466     Co1471   2.017   1_565  S
O1467      C1477   1.252       .  A
O1467     Co1470   2.005       .  S
O1468      C1475   1.276       .  A
O1468     Co1473   1.941       .  S
O1469      C1476   1.252       .  A
O1469     Co1472   1.956       .  S
C1475      C1641   1.482       .  S
C1476      C1578   1.487       .  S
C1477      C1608   1.474       .  S
C1478      C1628   1.462       .  S
O1479      C1487   1.262       .  A
O1479     Co1499   1.972   1_655  S
O1480      C1488   1.268       .  A
O1480     Co1500   1.854       .  S
O1481      C1489   1.266       .  A
O1481     Co1501   1.984       .  S
O1482      C1490   1.245       .  A
O1482     Co1502   1.929       .  S
O1485      C1488   1.304       .  A
O1485     Co1502   2.103       .  S
O1486      C1487   1.271       .  A
O1486     Co1501   2.006       .  S
C1487      C1548   1.479       .  S
C1488      C1631   1.474       .  S
C1489      C1538   1.492       .  S
C1490      C1621   1.474       .  S
O1493      C1506   1.263   1_655  A
O1493     Co1501   1.963       .  S
O1494      C1507   1.245       .  A
O1494     Co1502   1.943       .  S
O1495      C1507   1.269   1_554  A
O1495     Co1500   2.033   1_554  S
O1496      C1506   1.272       .  A
O1496     Co1499   2.001       .  S
O1497      C1504   1.305       .  A
O1497     Co1502   2.111       .  S
O1498      C1505   1.265       .  A
O1498     Co1501   1.989       .  S
Co1500     O1503   1.908   1_556  S
Co1502     O1503   2.112   1_556  S
C1504      C1571   1.489       .  S
C1505      C1638   1.480   1_655  S
C1506      C1651   1.471       .  S
C1507      C1558   1.487       .  S
O1508      C1516   1.253       .  A
O1508     Co1528   1.944       .  S
O1509      C1517   1.267   1_554  A
O1509     Co1529   1.876       .  S
O1510      C1518   1.271       .  A
O1510     Co1530   2.007       .  S
O1511      C1519   1.260       .  A
O1511     Co1531   2.005       .  S
O1514      C1517   1.304       .  A
O1514     Co1531   2.138       .  S
O1515      C1516   1.276       .  A
O1515     Co1530   2.050       .  S
C1516      C1611   1.480       .  S
C1517      C1561   1.478       .  S
C1518      C1598   1.482       .  S
C1519      C1541   1.479       .  S
O1522      C1535   1.257       .  A
O1522     Co1530   1.951       .  S
O1523      C1536   1.265       .  A
O1523     Co1531   1.893       .  S
O1524      C1536   1.298       .  A
O1524     Co1529   2.113   1_556  S
O1525      C1535   1.278       .  A
O1525     Co1528   2.044       .  S
O1526      C1533   1.278   1_545  A
O1526     Co1531   1.989   1_545  S
O1527      C1534   1.259       .  A
O1527     Co1530   1.969       .  S
C1533      C1581   1.480   1_565  S
C1534      C1568   1.472       .  S
C1535      C1551   1.486       .  S
C1536      C1591   1.479       .  S
C1537      C1538   1.412       .  A
C1537      C1542   1.395       .  A
C1537      H1544   1.083       .  S
C1539      C1540   1.406       .  A
C1539      F1546   1.357       .  S
C1540      C1541   1.409       .  A
C1540      H1545   1.083       .  S
C1542      F1543   1.358       .  S
C1547      C1548   1.401       .  A
C1547      C1552   1.401       .  A
C1548      C1549   1.410       .  A
C1549      C1550   1.395       .  A
C1549      F1556   1.358       .  S
C1550      C1551   1.402       .  A
C1550      H1555   1.083       .  S
C1551      C1552   1.416       .  A
C1557      C1558   1.413       .  A
C1557      C1562   1.403       .  A
C1557      H1564   1.083       .  S
C1558      C1559   1.402   1_556  A
C1559      C1560   1.400       .  A
C1559      F1566   1.355       .  S
C1560      C1561   1.405   1_554  A
C1560      H1565   1.084       .  S
C1561      C1562   1.404       .  A
C1562      F1563   1.359       .  S
C1567      C1572   1.395       .  A
C1567      H1574   1.084       .  S
C1568      C1569   1.409       .  A
C1569      C1570   1.402       .  A
C1569      F1576   1.358       .  S
C1570      H1575   1.084       .  S
C1571      C1572   1.414       .  A
C1572      F1573   1.358       .  S
C1577      C1578   1.402       .  A
C1577      C1582   1.400       .  A
C1577      H1584   1.083       .  S
C1579      C1580   1.398       .  A
C1579      F1586   1.358       .  S
C1580      C1581   1.399       .  A
C1580      H1585   1.083       .  S
C1582      F1583   1.357       .  S
C1587      C1588   1.403       .  A
C1587      C1592   1.405       .  A
C1587      H1594   1.081       .  S
C1588      C1589   1.409   1_565  A
C1589      C1590   1.391       .  A
C1589      F1596   1.359       .  S
C1590      C1591   1.400   1_545  A
C1590      H1595   1.073       .  S
C1591      C1592   1.411       .  A
C1592      F1593   1.357       .  S
C1597      C1598   1.402       .  A
C1597      H1604   1.083       .  S
C1599      C1600   1.391       .  A
C1599      F1606   1.359       .  S
C1600      C1601   1.402   1_545  A
C1600      H1605   1.084       .  S
C1601      C1602   1.404       .  A
C1602      F1603   1.357       .  S
C1607      C1608   1.410       .  A
C1607      C1612   1.403       .  A
C1607      H1614   1.083       .  S
C1609      C1610   1.398       .  A
C1609      F1616   1.357       .  S
C1610      H1615   1.083       .  S
C1611      C1612   1.403       .  A
C1612      F1613   1.357       .  S
C1617      C1622   1.391       .  A
C1617      H1624   1.084       .  S
C1618      C1619   1.412       .  A
C1619      C1620   1.394       .  A
C1619      F1626   1.357       .  S
C1620      H1625   1.083       .  S
C1621      C1622   1.415       .  A
C1622      F1623   1.359       .  S
C1627      C1628   1.406       .  A
C1627      C1632   1.401       .  A
C1627      H1634   1.083       .  S
C1629      C1630   1.389       .  A
C1629      F1636   1.357       .  S
C1630      H1635   1.083       .  S
C1631      C1632   1.406       .  A
C1632      F1633   1.357       .  S
C1637      C1638   1.402       .  A
C1637      C1642   1.389       .  A
C1637      H1644   1.084       .  S
C1639      C1640   1.407       .  A
C1639      F1646   1.357       .  S
C1640      C1641   1.403       .  A
C1640      H1645   1.083       .  S
C1642      F1643   1.359       .  S
C1647      C1652   1.396       .  A
C1647      H1654   1.083       .  S
C1648      C1649   1.412       .  A
C1649      C1650   1.402       .  A
C1649      F1656   1.357       .  S
C1650      C1651   1.402       .  A
C1650      H1655   1.084       .  S
C1652      F1653   1.358       .  S
