geometry optimzed in LAMMPS
_audit_creation_date              2020-11-30 
_audit_creation_method            'lammps2cif' 
_symmetry_space_group_name_H-M    'P1' 
_symmetry_Int_Tables_number       1 
_symmetry_cell_setting            triclinic 
loop_ 
_symmetry_equiv_pos_as_xyz 
  x,y,z 
_cell_length_a                    30.79488524 
_cell_length_b                    30.649244027370024 
_cell_length_c                    34.51598926980901 
_cell_angle_alpha                 89.93054889803433 
_cell_angle_beta                  90.46915176664733 
_cell_angle_gamma                 89.90260902639048 
loop_ 
_atom_site_label 
_atom_site_type_symbol 
_atom_site_fract_x 
_atom_site_fract_y 
_atom_site_fract_z 
_atom_site_charge 
C1          C  0.86479482  0.36778461  0.04041687     0.30300
C2          C  0.86655927  0.36754774  0.46098439     0.30700
C3          C  0.82240801  0.38285700  0.01976100    -0.05500
C4          C  0.89939091  0.39639243  0.02140136    -0.06300
C5          C  0.87161725  0.32276783  0.02101659    -0.06200
C6          C  0.82326665  0.38181207  0.47937515    -0.05500
C7          C  0.90004614  0.39616848  0.48135708    -0.06300
C8          C  0.87345718  0.32278618  0.48065223    -0.06200
C9          C  0.78148905  0.38937162  0.46634072    -0.31600
N10         N  0.75560888  0.39820697  0.49711289     0.14900
C11         C  0.78015343  0.39285355  0.02984624    -0.31600
H12         H  0.76784721  0.39542882  0.05898067     0.16900
C13         C  0.93172769  0.42463432  0.46972582    -0.30600
N14         N  0.95050562  0.44223365  0.00173353     0.13600
C15         C  0.93082602  0.42540695  0.03355957    -0.30600
C16         C  0.88119448  0.28032146  0.46932745    -0.30900
N17         N  0.88382238  0.25446169  0.50133144     0.14100
H18         H  0.88647024  0.26933493  0.44004054     0.16800
C19         C  0.87665475  0.28002476  0.03284727    -0.30900
H20         H  0.87651826  0.26845111  0.06246881     0.16800
H21         H  0.93781516  0.43468852  0.06320234     0.16800
H22         H  0.77072947  0.38685663  0.43656896     0.16800
H23         H  0.94007021  0.43258751  0.44013914     0.16800
C24         C  0.86898276  0.36932537  0.21159629     0.30700
C25         C  0.87247419  0.37026427  0.29109692     0.30700
C26         C  0.88050230  0.32533911  0.23125593    -0.05500
C27         C  0.90153093  0.40100143  0.23017337    -0.06300
C28         C  0.82606572  0.38014897  0.23238811    -0.06200
C29         C  0.88121145  0.32577338  0.27167874    -0.05500
C30         C  0.90351247  0.40117077  0.27033383    -0.06300
C31         C  0.82809791  0.38184191  0.27268191    -0.06200
C32         C  0.88566736  0.28313337  0.28370199    -0.31600
N33         N  0.89083967  0.25709042  0.25229533     0.14900
C34         C  0.88688233  0.28247764  0.22006737    -0.31600
H35         H  0.88924235  0.27071074  0.19067750     0.16900
C36         C  0.93440742  0.43127737  0.28117370    -0.30600
N37         N  0.95083321  0.44972506  0.24863567     0.13600
C38         C  0.93112506  0.43129369  0.21729793    -0.30600
C39         C  0.78687486  0.39168442  0.28544632    -0.30900
N40         N  0.75967051  0.39491730  0.25433737     0.14100
H41         H  0.77775400  0.39736981  0.31511530     0.16800
C42         C  0.78319866  0.38622535  0.22207546    -0.30900
H43         H  0.77000396  0.38487839  0.19296252     0.16800
H44         H  0.93816373  0.43902511  0.18739438     0.16800
H45         H  0.88532600  0.27160142  0.31332653     0.16800
H46         H  0.94401609  0.43946525  0.31051092     0.16800
C47         C  0.35847328  0.15062907  0.04196937     0.30700
C48         C  0.35543013  0.15054032  0.46248498     0.30700
C49         C  0.36535994  0.19546818  0.02225699    -0.05500
C50         C  0.39175266  0.12147857  0.02160261    -0.06300
C51         C  0.31501244  0.13626217  0.02322916    -0.06200
C52         C  0.36492589  0.19510803  0.48178306    -0.05500
C53         C  0.39097088  0.12208242  0.48135421    -0.06300
C54         C  0.31394568  0.13563339  0.48294691    -0.06200
C55         C  0.38154151  0.23474426  0.46992181    -0.31600
N56         N  0.38993229  0.25975932  0.50153864     0.14900
C57         C  0.37873408  0.23662782  0.03350543    -0.31600
H58         H  0.38289770  0.24814946  0.06289388     0.16900
C59         C  0.42464341  0.09588008  0.46919160    -0.30600
N60         N  0.44448224  0.07829150  0.50082749     0.13600
C61         C  0.42458060  0.09361003  0.03301869    -0.30600
C62         C  0.27299460  0.12236223  0.47161080    -0.30900
N63         N  0.24897084  0.11516340  0.50383794     0.14100
H64         H  0.26161256  0.11796106  0.44212253     0.16800
C65         C  0.27380954  0.12504465  0.03530532    -0.30900
H66         H  0.26204743  0.12499577  0.06473291     0.16800
H67         H  0.43341530  0.08508359  0.06249346     0.16800
H68         H  0.38892071  0.24411970  0.44051196     0.16800
H69         H  0.43355132  0.08913832  0.43953716     0.16800
C70         C  0.35836661  0.15127053  0.29196951     0.30700
C71         C  0.35874062  0.15164538  0.21248065     0.30700
C72         C  0.37904983  0.19166667  0.27295052    -0.05500
C73         C  0.38414859  0.11401742  0.27248687    -0.06300
C74         C  0.31390737  0.14870819  0.27177629    -0.06200
C75         C  0.37815472  0.19260079  0.23252004    -0.05500
C76         C  0.38363313  0.11442224  0.23222852    -0.06300
C77         C  0.31359414  0.14912457  0.23151308    -0.06200
C78         C  0.39344543  0.23321599  0.22172096    -0.31600
N79         N  0.40511819  0.25584396  0.25400836     0.14900
C80         C  0.39757671  0.23022370  0.28531799    -0.31600
H81         H  0.40365863  0.23977353  0.31503627     0.16900
C82         C  0.41199722  0.08301799  0.21963707    -0.30600
N83         N  0.43053088  0.06349620  0.25092756     0.13600
C84         C  0.41470133  0.08295436  0.28333062    -0.30600
C85         C  0.27119835  0.14085171  0.22006990    -0.30900
N86         N  0.24686444  0.13314480  0.25207124     0.14100
H87         H  0.25952126  0.13708862  0.19063575     0.16800
C88         C  0.27251338  0.13949543  0.28376235    -0.30900
H89         H  0.26256599  0.13505018  0.31349219     0.16800
H90         H  0.42675918  0.07689618  0.31236570     0.16800
H91         H  0.39534300  0.24596187  0.19258567     0.16800
H92         H  0.41997192  0.07616235  0.18976692     0.16800
C93         C  0.65249451  0.86220322  0.03543209     0.30700
C94         C  0.64851331  0.86141724  0.45590248     0.30700
C95         C  0.63267903  0.82079904  0.01694642    -0.05500
C96         C  0.62425965  0.89789493  0.01644773    -0.06300
C97         C  0.69574448  0.86702873  0.01440276    -0.06200
C98         C  0.63161014  0.81966958  0.47645214    -0.05500
C99         C  0.62268234  0.89767285  0.47613113    -0.06300
C100        C  0.69433754  0.86573389  0.47420497    -0.06200
C101        C  0.61629971  0.77866885  0.46634249    -0.31600
N102        N  0.60574188  0.75641548  0.99904510     0.14900
C103        C  0.61535945  0.78200818  0.03001733    -0.31600
H104        H  0.61132685  0.77243567  0.05994830     0.16900
C105        C  0.59239185  0.92837570  0.46470207    -0.30600
N106        N  0.57499163  0.94645218  0.99692236     0.13600
C107        C  0.59371383  0.92775717  0.02855387    -0.30600
C108        C  0.73604534  0.87462621  0.46181949    -0.30900
N109        N  0.76164747  0.88360128  0.99315741     0.14100
H110        H  0.74650893  0.87704064  0.43205797     0.16800
C111        C  0.73698899  0.87909983  0.02536514    -0.30900
H112        H  0.74709021  0.88753755  0.05449737     0.16800
H113        H  0.58436807  0.93447460  0.05809063     0.16800
H114        H  0.61369251  0.76525046  0.43747095     0.16800
H115        H  0.58217532  0.93550801  0.43528361     0.16800
C116        C  0.65061851  0.86151447  0.28515405     0.30700
C117        C  0.65527975  0.86246927  0.20574120     0.30700
C118        C  0.64318121  0.81722131  0.26486084    -0.05500
C119        C  0.61850190  0.89165940  0.26402124    -0.06300
C120        C  0.69469685  0.87511256  0.26783902    -0.06200
C121        C  0.64466971  0.81782725  0.22447480    -0.05500
C122        C  0.61997588  0.89178754  0.22381007    -0.06300
C123        C  0.69651859  0.87635629  0.22763520    -0.06200
C124        C  0.63179330  0.77695293  0.21201971    -0.31600
N125        N  0.62348593  0.75143783  0.24334943     0.14900
C126        C  0.63188901  0.77543523  0.27562930    -0.31600
H127        H  0.62804000  0.76372722  0.30495178     0.16900
C128        C  0.58713842  0.91940800  0.21123736    -0.30600
N129        N  0.56739713  0.93720694  0.24269162     0.13600
C130        C  0.58626788  0.91998317  0.27498851    -0.30600
C131        C  0.73731458  0.89052652  0.21771298    -0.30900
N132        N  0.76084030  0.89736853  0.25067775     0.14100
H133        H  0.74867813  0.89626377  0.18856414     0.16800
C134        C  0.73552709  0.88635888  0.28127817    -0.30900
H135        H  0.74637612  0.88571065  0.31112421     0.16800
H136        H  0.57732701  0.92768004  0.30446784     0.16800
H137        H  0.62791195  0.76675923  0.18229299     0.16800
H138        H  0.57789184  0.92547867  0.18142357     0.16800
C139        C  0.15531055  0.65847528  0.45826375     0.30700
C140        C  0.15622645  0.65997026  0.03781348     0.30700
C141        C  0.14741474  0.70332285  0.47720654    -0.05500
C142        C  0.12237269  0.62894382  0.47838828    -0.06300
C143        C  0.19852586  0.64470037  0.47797914    -0.06200
C144        C  0.14726268  0.70368865  0.01748518    -0.05500
C145        C  0.12306654  0.62897678  0.01869002    -0.06300
C146        C  0.19853719  0.64443264  0.01841018    -0.06200
C147        C  0.13498051  0.74487088  0.02894195    -0.31600
N148        N  0.12810711  0.76989358  0.99687056     0.14900
C149        C  0.13670520  0.74501392  0.46526242    -0.31600
H150        H  0.13253270  0.75574015  0.43565028     0.16900
C151        C  0.09546243  0.59613956  0.03033132    -0.30600
N152        N  0.07674066  0.57802896  0.99842080     0.13600
C153        C  0.09372529  0.59726941  0.46652477    -0.30600
C154        C  0.23730750  0.62592892  0.03029605    -0.30900
N155        N  0.26150966  0.61691839  0.99859676     0.14100
H156        H  0.24684037  0.61814198  0.05974510     0.16800
C157        C  0.23867588  0.62942922  0.46665584    -0.30900
H158        H  0.25076897  0.62761298  0.43739609     0.16800
H159        H  0.08697532  0.58782121  0.43688111     0.16800
H160        H  0.12929567  0.75518970  0.05845126     0.16800
H161        H  0.08964989  0.58572624  0.05979808     0.16800
C162        C  0.16129133  0.66019753  0.28817182     0.30700
C163        C  0.16360493  0.66132858  0.20867245     0.30700
C164        C  0.20602342  0.65061457  0.26986694    -0.05500
C165        C  0.13127768  0.62799686  0.26740361    -0.06300
C166        C  0.14951576  0.70414913  0.26856988    -0.06200
C167        C  0.20671864  0.64943301  0.22944202    -0.05500
C168        C  0.13223068  0.62811940  0.22719538    -0.06300
C169        C  0.15090760  0.70432138  0.22831055    -0.06200
C170        C  0.24655330  0.63243896  0.21926515    -0.31600
N171        N  0.27119600  0.62664576  0.25172681     0.14900
C172        C  0.24688667  0.63836980  0.28269234    -0.31600
H173        H  0.25726896  0.63532981  0.31255762     0.16900
C174        C  0.10356956  0.59606043  0.21506981    -0.30600
N175        N  0.08547641  0.57731779  0.24679255     0.13600
C176        C  0.10210552  0.59675163  0.27887353    -0.30600
C177        C  0.13944084  0.74542202  0.21586627    -0.30900
N178        N  0.13082194  0.77072459  0.24724722     0.14100
H179        H  0.13715033  0.75589297  0.18596713     0.16800
C180        C  0.13712484  0.74573363  0.27951479    -0.30900
H181        H  0.13173991  0.75666421  0.30879523     0.16800
H182        H  0.09321250  0.58903495  0.30837350     0.16800
H183        H  0.25647706  0.62345769  0.19035708     0.16800
H184        H  0.09649220  0.58661706  0.18549717     0.16800
O185        O  0.97219602  0.06331663  0.03245707    -0.73800
O186        O  0.02820241  0.95193183  0.02865411    -0.73800
O187        O  0.05607788  0.03548606  0.03282009    -0.73900
O188        O  0.94478984  0.97916694  0.02785544    -0.73900
O189        O  0.94641919  0.98226440  0.46338496    -0.73800
O190        O  0.05636656  0.04069496  0.46839550    -0.73800
O191        O  0.03088121  0.95592802  0.46423842    -0.73800
O192        O  0.97196009  0.06676319  0.46798411    -0.73900
Ni193      Ni  0.00024759  0.00742689  0.03270772     1.25400
Ni194      Ni  0.00144662  0.01156551  0.46368924     1.25400
C195        C  0.96273008  0.08349601  0.50097407     0.88400
C196        C  0.03872052  0.93542873  0.49599663     0.88300
C197        C  0.07461409  0.04728106  0.00136340     0.88400
C198        C  0.92738122  0.97112693  0.99474156     0.88500
O199        O  0.03721244  0.95569142  0.27929550    -0.73800
O200        O  0.97709123  0.06517500  0.28437691    -0.73800
O201        O  0.95225766  0.98052145  0.28242698    -0.73900
O202        O  0.06150085  0.04035546  0.28124581    -0.73900
O203        O  0.05812125  0.04453147  0.21681443    -0.73800
O204        O  0.95001265  0.98226306  0.21791470    -0.73800
O205        O  0.97306953  0.06754236  0.21993571    -0.73800
O206        O  0.03507943  0.95895155  0.21486426    -0.73900
Ni207      Ni  0.00707599  0.01030169  0.28411402     1.25400
Ni208      Ni  0.00396702  0.01337113  0.21508926     1.25400
C209        C  0.04635545  0.93928727  0.24619093     0.88400
C210        C  0.96542712  0.08460930  0.25307539     0.88300
C211        C  0.93298429  0.97162406  0.25033421     0.88400
C212        C  0.07778112  0.05245870  0.24891497     0.88500
O213        O  0.45120730  0.53202699  0.03494396    -0.73800
O214        O  0.56321134  0.47647374  0.03449431    -0.73800
O215        O  0.53399591  0.56090842  0.03463993    -0.73900
O216        O  0.47955245  0.44831333  0.03532317    -0.73900
O217        O  0.47966500  0.44741875  0.47072222    -0.73800
O218        O  0.53297038  0.56076074  0.47001747    -0.73800
O219        O  0.56216051  0.47723942  0.46995506    -0.73800
O220        O  0.45002934  0.53068936  0.47035015    -0.73900
Ni221      Ni  0.50714888  0.50440429  0.03716770     1.25400
Ni222      Ni  0.50619927  0.50404913  0.46799403     1.25400
C223        C  0.43215313  0.54032710  0.50260492     0.88400
C224        C  0.58109103  0.46752080  0.50198563     0.88300
C225        C  0.54181559  0.57969166  0.00225225     0.88400
C226        C  0.47043905  0.42942476  0.00318222     0.88500
O227        O  0.56972664  0.47813782  0.28545860    -0.73800
O228        O  0.45742114  0.53274455  0.28662251    -0.73800
O229        O  0.48705900  0.44868605  0.28807151    -0.73900
O230        O  0.54073641  0.56157469  0.28396596    -0.73900
O231        O  0.53739234  0.55986622  0.21947213    -0.73800
O232        O  0.48456617  0.44684421  0.22350062    -0.73800
O233        O  0.45478159  0.52985355  0.22210297    -0.73800
O234        O  0.56726954  0.47679594  0.22095000    -0.73900
Ni235      Ni  0.51372261  0.50536333  0.28835614     1.25400
Ni236      Ni  0.51090183  0.50326565  0.21924836     1.25400
C237        C  0.58724616  0.46893955  0.25291486     0.88400
C238        C  0.43753149  0.54011571  0.25447375     0.88300
C239        C  0.47753912  0.42893291  0.25640628     0.88400
C240        C  0.54821723  0.57921177  0.25099648     0.88500
C241        C  0.31310391  0.60528511  0.25312884     0.00500
C242        C  0.32097904  0.56988177  0.22830559    -0.11400
C243        C  0.36092515  0.54804080  0.22860570     0.02700
C244        C  0.39416537  0.56118490  0.25446189     0.00400
C245        C  0.38627832  0.59610218  0.27977190    -0.11300
C246        C  0.34645420  0.61850102  0.27899987     0.02600
H247        H  0.29549789  0.55876368  0.20887871     0.15600
H248        H  0.41182134  0.60682814  0.29936309     0.15600
C249        C  0.34165098  0.65617912  0.30362019     0.37300
C250        C  0.36632955  0.51125724  0.20295085     0.37200
N251        N  0.33801091  0.68639910  0.32341374    -0.43100
N252        N  0.37060376  0.48178007  0.18240091    -0.43100
C253        C  0.11272248  0.81444848  0.24592095     0.00500
C254        C  0.08516775  0.82632720  0.21494243    -0.11400
C255        C  0.06493763  0.86727503  0.21348073     0.02700
C256        C  0.07020150  0.89697371  0.24447288     0.00400
C257        C  0.09882278  0.88578953  0.27486675    -0.11300
C258        C  0.12095145  0.84568622  0.27524674     0.02600
H259        H  0.07871486  0.80325573  0.19186625     0.15600
H260        H  0.10478513  0.90895324  0.29803595     0.15600
C261        C  0.15375439  0.83878592  0.30470252     0.37300
C262        C  0.03878007  0.87745651  0.17981304     0.37200
N263        N  0.18035380  0.83349984  0.32812785    -0.43100
N264        N  0.01858510  0.88574394  0.15237589    -0.43100
C265        C  0.15256230  0.65565141  0.41402624     0.00500
C266        C  0.17614996  0.62337943  0.39436635    -0.11400
C267        C  0.17749096  0.62250659  0.35388975     0.02700
C268        C  0.15742539  0.65649949  0.33225760     0.00400
C269        C  0.12491291  0.68022886  0.35148594    -0.11300
C270        C  0.12101701  0.67842651  0.39185000     0.02600
H271        H  0.19133283  0.59707108  0.41040282     0.15600
H272        H  0.10045887  0.69765524  0.33495476     0.15600
C273        C  0.08146193  0.69476500  0.40876748     0.37300
C274        C  0.19484048  0.58372362  0.33595780     0.37200
N275        N  0.04952104  0.70743827  0.42219132    -0.43100
N276        N  0.20866058  0.55244264  0.32187120    -0.43100
C277        C  0.16240472  0.66439121  0.16430778     0.00500
C278        C  0.12193488  0.66152661  0.14517648    -0.11400
C279        C  0.11866927  0.66270009  0.10469184     0.02700
C280        C  0.15681262  0.66344127  0.08211034     0.00400
C281        C  0.19539328  0.67595715  0.10117510    -0.11300
C282        C  0.19802382  0.67821017  0.14166036     0.02600
H283        H  0.09237634  0.66029415  0.16193533     0.15600
H284        H  0.22308102  0.68637626  0.08441034     0.15600
C285        C  0.23520485  0.70020386  0.15817148     0.37300
C286        C  0.07597946  0.66805023  0.08774135     0.37200
N287        N  0.26502194  0.71832778  0.17088789    -0.43100
N288        N  0.04173800  0.67293161  0.07433748    -0.43100
C289        C  0.30419796  0.59746155  0.49920888     0.00500
C290        C  0.33456647  0.61119312  0.02719770    -0.11400
C291        C  0.37640399  0.59324774  0.02886254     0.02700
C292        C  0.38852247  0.56064390  0.50215942     0.00400
C293        C  0.35822091  0.54688870  0.47415198    -0.11300
C294        C  0.31629155  0.56457735  0.47265652     0.02600
H295        H  0.32571489  0.63666292  0.04743548     0.15600
H296        H  0.36704335  0.52145983  0.45382349     0.15600
C297        C  0.28596033  0.54681603  0.44476525     0.37300
C298        C  0.40675914  0.61037410  0.05706323     0.37200
N299        N  0.26192922  0.53233579  0.42227463    -0.43100
N300        N  0.43104211  0.62431535  0.07959998    -0.43100
C301        C  0.10655990  0.81187168  0.49633955     0.00500
C302        C  0.07238038  0.81948524  0.02219140    -0.11400
C303        C  0.04944545  0.85893474  0.02194456     0.02700
C304        C  0.06052155  0.89218723  0.49540801     0.00400
C305        C  0.09411761  0.88444978  0.46899223    -0.11300
C306        C  0.11733068  0.84493992  0.46943859     0.02600
H307        H  0.06281558  0.79400620  0.04216910     0.15600
H308        H  0.10312323  0.90983579  0.44867782     0.15600
C309        C  0.15318805  0.84005543  0.44316572     0.37300
C310        C  0.01331476  0.86351446  0.04806627     0.37200
N311        N  0.18193185  0.83619135  0.42204868    -0.43100
N312        N  0.98418792  0.86704026  0.06880705    -0.43100
C313        C  0.60605733  0.70752161  0.24345111     0.00500
C314        C  0.61861611  0.67861200  0.27321413    -0.11400
C315        C  0.60033422  0.63692233  0.27641983     0.02700
C316        C  0.56910890  0.62280698  0.24897258     0.00400
C317        C  0.55721384  0.65113483  0.21870055    -0.11300
C318        C  0.57469394  0.69321746  0.21596269     0.02600
H319        H  0.64291214  0.68870153  0.29423603     0.15600
H320        H  0.53294958  0.64085085  0.19766436     0.15600
C321        C  0.55769297  0.72128957  0.18584796     0.37300
C322        C  0.61510777  0.60910786  0.30767714     0.37200
N323        N  0.54388921  0.74339596  0.16146191    -0.43100
N324        N  0.62702204  0.58698798  0.33281477    -0.43100
C325        C  0.80469746  0.91428323  0.25228507     0.00500
C326        C  0.83378690  0.90353007  0.22262412    -0.11400
C327        C  0.87550503  0.92158863  0.22130183     0.02700
C328        C  0.88976500  0.95008254  0.25094092     0.00400
C329        C  0.86116714  0.96004712  0.28118177    -0.11300
C330        C  0.81877005  0.94341431  0.28167048     0.02600
H331        H  0.82366433  0.88120498  0.19997478     0.15600
H332        H  0.87126957  0.98268331  0.30364356     0.15600
C333        C  0.78980579  0.95964227  0.31102378     0.37300
C334        C  0.90263429  0.91024470  0.18895991     0.37200
N335        N  0.76677282  0.97299163  0.33456421    -0.43100
N336        N  0.92369943  0.90120826  0.16255650    -0.43100
C337        C  0.64556875  0.86469824  0.41156588     0.00500
C338        C  0.61460494  0.84037347  0.39059737    -0.11400
C339        C  0.61333480  0.84127178  0.34995178     0.02700
C340        C  0.64609404  0.86368475  0.32935909     0.00400
C341        C  0.66910383  0.89570344  0.35017722    -0.11300
C342        C  0.66788011  0.89743258  0.39064703     0.02600
H343        H  0.58910819  0.82341640  0.40569128     0.15600
H344        H  0.68624215  0.92110795  0.33485980     0.15600
C345        C  0.68607675  0.93548890  0.40929640     0.37300
C346        C  0.57511556  0.82414821  0.33083770     0.37200
N347        N  0.70029029  0.96626881  0.42404108    -0.43100
N348        N  0.54422578  0.81086690  0.31562308    -0.43100
C349        C  0.65787824  0.86287417  0.07959070     0.00500
C350        C  0.65483908  0.90251399  0.09999869    -0.11400
C351        C  0.65761822  0.90352530  0.14051441     0.02700
C352        C  0.65993629  0.86403591  0.16159969     0.00400
C353        C  0.67380516  0.82696818  0.14110542    -0.11300
C354        C  0.67426566  0.82657212  0.10054092     0.02600
H355        H  0.65307173  0.93310667  0.08441830     0.15600
H356        H  0.68658101  0.79901552  0.15659694     0.15600
C357        C  0.69563236  0.79054375  0.08157983     0.37300
C358        C  0.66407690  0.94511879  0.15921280     0.37200
N359        N  0.71328245  0.76199466  0.06640167    -0.43100
N360        N  0.67082342  0.97807812  0.17440616    -0.43100
C361        C  0.55995729  0.62452870  0.00214504     0.00500
C362        C  0.54015184  0.65669396  0.02497002    -0.11400
C363        C  0.55454763  0.70012883  0.02418748     0.02700
C364        C  0.58989054  0.71205033  0.00054519     0.00400
C365        C  0.61005678  0.67966333  0.47813294    -0.11300
C366        C  0.59558592  0.63622976  0.47889580     0.02600
H367        H  0.51253381  0.64808358  0.04269008     0.15600
H368        H  0.63770435  0.68827452  0.46047340     0.15600
C369        C  0.61916054  0.60382105  0.45716608     0.37300
C370        C  0.53113460  0.73217122  0.04642981     0.37200
N371        N  0.63830471  0.57771329  0.44011783    -0.43100
N372        N  0.51223514  0.75778722  0.06426485    -0.43100
C373        C  0.88499426  0.94803244  0.99286182     0.00500
C374        C  0.87572766  0.91639612  0.02108754    -0.11400
C375        C  0.83624414  0.89367274  0.02071367     0.02700
C376        C  0.80440699  0.90307280  0.99215274     0.00400
C377        C  0.81399052  0.93423166  0.46352403    -0.11300
C378        C  0.85372260  0.95655442  0.46355808     0.02600
H379        H  0.89973482  0.90889090  0.04328941     0.15600
H380        H  0.78978285  0.94224247  0.44169182     0.15600
C381        C  0.86049240  0.98952261  0.43428079     0.37300
C382        C  0.82982347  0.85993580  0.04928388     0.37200
N383        N  0.86582379  0.01596106  0.41083059    -0.43100
N384        N  0.82463618  0.83291129  0.07222482    -0.43100
C385        C  0.53202699  0.96832949  0.24299734     0.00500
C386        C  0.49920006  0.96387691  0.27086127    -0.11400
C387        C  0.46552963  0.99452021  0.27384947     0.02700
C388        C  0.46462179  0.03120380  0.24913301     0.00400
C389        C  0.49701920  0.03544021  0.22102745    -0.11300
C390        C  0.53020107  0.00447082  0.21746529     0.02600
H391        H  0.49953059  0.93584990  0.29004738     0.15600
H392        H  0.49659144  0.06348787  0.20185515     0.15600
C393        C  0.56186546  0.01172884  0.18766089     0.37300
C394        C  0.43124486  0.98636395  0.30113689     0.37200
N395        N  0.58599455  0.01867555  0.16290607    -0.43100
N396        N  0.40369177  0.97957513  0.32292407    -0.43100
C397        C  0.42215438  0.29973008  0.25524425     0.00500
C398        C  0.45654075  0.30960592  0.28077271    -0.11400
C399        C  0.47436270  0.35166756  0.28236951     0.02700
C400        C  0.45828447  0.38468758  0.25749663     0.00400
C401        C  0.42354032  0.37505096  0.23239987    -0.11300
C402        C  0.40480297  0.33341529  0.23172257     0.02600
H403        H  0.46991543  0.28413607  0.29915443     0.15600
H404        H  0.41028869  0.40049802  0.21388853     0.15600
C405        C  0.36617997  0.32698985  0.20849564     0.37300
C406        C  0.51013000  0.35958633  0.30874649     0.37200
N407        N  0.33498921  0.32196861  0.19011601    -0.43100
N408        N  0.53870247  0.36593311  0.32997937    -0.43100
C409        C  0.12064653  0.07453747  0.24907011     0.00500
C410        C  0.15219394  0.06007085  0.27565702    -0.11400
C411        C  0.19372088  0.07845197  0.27674323     0.02700
C412        C  0.20409326  0.11367828  0.25189174     0.00400
C413        C  0.17253714  0.12811213  0.22510068    -0.11300
C414        C  0.13122074  0.10872429  0.22328542     0.02600
H415        H  0.14485245  0.03305665  0.29485823     0.15600
H416        H  0.18024255  0.15468594  0.20559259     0.15600
C417        C  0.10003665  0.12527636  0.19544850     0.37300
C418        C  0.22572834  0.05825689  0.30178577     0.37200
N419        N  0.07507527  0.13852804  0.17309491    -0.43100
N420        N  0.25138946  0.04195710  0.32179418    -0.43100
C421        C  0.54156487  0.97923470  0.49760268     0.00500
C422        C  0.54759520  0.01842568  0.47732277    -0.11400
C423        C  0.51631437  0.05165687  0.47860534     0.02700
C424        C  0.47807334  0.04566682  0.50016772     0.00400
C425        C  0.47205798  0.00645313  0.02041074    -0.11300
C426        C  0.50327348  0.97323704  0.01911550     0.02600
H427        H  0.57723315  0.02328238  0.46115036     0.15600
H428        H  0.44238853  0.00150337  0.03651645     0.15600
C429        C  0.49453998  0.93255398  0.03861665     0.37300
C430        C  0.52480796  0.09230757  0.45899182     0.37200
N431        N  0.48759859  0.89983423  0.05413186    -0.43100
N432        N  0.53152624  0.12503391  0.44341017    -0.43100
C433        C  0.35185222  0.14920777  0.41825895     0.00500
C434        C  0.33954751  0.18685040  0.39762722    -0.11400
C435        C  0.33955883  0.18774722  0.35713054     0.02700
C436        C  0.35442952  0.15095920  0.33615471     0.00400
C437        C  0.35729987  0.11123106  0.35653982    -0.11300
C438        C  0.35461527  0.10986720  0.39698730     0.02600
H439        H  0.32774861  0.21519383  0.41294853     0.15600
H440        H  0.35913776  0.08070883  0.34096807     0.15600
C441        C  0.35104394  0.06764469  0.41531510     0.37300
C442        C  0.32082424  0.22558227  0.33836471     0.37200
N443        N  0.34776088  0.03377270  0.42984922    -0.43100
N444        N  0.30563728  0.25600978  0.32365146    -0.43100
C445        C  0.36233472  0.14817870  0.08619214     0.00500
C446        C  0.33763547  0.11738238  0.10663968    -0.11400
C447        C  0.33748578  0.11649467  0.14712116     0.02700
C448        C  0.36094614  0.14840992  0.16825740     0.00400
C449        C  0.39366675  0.17065120  0.14797235    -0.11300
C450        C  0.39547897  0.16962344  0.10746515     0.02600
H451        H  0.32038295  0.09204285  0.09119236     0.15600
H452        H  0.41992060  0.18620303  0.16358013     0.15600
C453        C  0.43419615  0.18623479  0.08930243     0.37300
C454        C  0.31691118  0.07971776  0.16562274     0.37200
N455        N  0.46543781  0.19935870  0.07499005    -0.43100
N456        N  0.30058839  0.05000427  0.18020029    -0.43100
C457        C  0.41049545  0.30214406  0.00176764     0.00500
C458        C  0.39538134  0.33450449  0.02713063    -0.11400
C459        C  0.41465706  0.37593247  0.02844661     0.02700
C460        C  0.44932989  0.38598484  0.00341460     0.00400
C461        C  0.46467415  0.35364021  0.47825277    -0.11300
C462        C  0.44638776  0.31178160  0.47786011     0.02600
H463        H  0.36816704  0.32739997  0.04582174     0.15600
H464        H  0.49207837  0.36068277  0.45971583     0.15600
C465        C  0.46713465  0.27871226  0.45469575     0.37300
C466        C  0.39741832  0.40783871  0.05498437     0.37200
N467        N  0.48410081  0.25224505  0.43629290    -0.43100
N468        N  0.38363793  0.43331150  0.07636264    -0.43100
C469        C  0.20484843  0.09926207  0.00449129     0.00500
C470        C  0.17391072  0.11682509  0.47871674    -0.11400
C471        C  0.13103125  0.10135431  0.47791100     0.02700
C472        C  0.11846930  0.06727531  0.00305476     0.00400
C473        C  0.14917653  0.05028176  0.02931281    -0.11300
C474        C  0.19203168  0.06563214  0.03006112     0.02600
H475        H  0.18327176  0.14303651  0.45941047     0.15600
H476        H  0.14005439  0.02379316  0.04845407     0.15600
C477        C  0.22267053  0.04452871  0.05584882     0.37300
C478        C  0.10018538  0.12218070  0.45212339     0.37200
N479        N  0.24708369  0.02748205  0.07659109    -0.43100
N480        N  0.07540651  0.13911740  0.43166266    -0.43100
C481        C  0.05226046  0.54433996  0.24660284     0.00500
C482        C  0.01395165  0.55130939  0.22517446    -0.11400
C483        C  0.98003193  0.52085909  0.22597747     0.02700
C484        C  0.98464742  0.48209290  0.24773337     0.00400
C485        C  0.02292632  0.47519468  0.26921920    -0.11300
C486        C  0.05655792  0.50591948  0.26889388     0.02600
H487        H  0.01010252  0.58129809  0.20880259     0.15600
H488        H  0.02660382  0.44546359  0.28598848     0.15600
C489        C  0.09559248  0.49681884  0.29085235     0.37300
C490        C  0.93977987  0.53128163  0.20637393     0.37200
N491        N  0.12680056  0.48939024  0.30857553    -0.43100
N492        N  0.90732043  0.53977495  0.19098157    -0.43100
C493        C  0.90581167  0.21233675  0.25388951     0.00500
C494        C  0.93549552  0.20013730  0.28314750    -0.11400
C495        C  0.95399598  0.15846188  0.28424070     0.02700
C496        C  0.94363243  0.12781877  0.25505320     0.00400
C497        C  0.91287612  0.13935755  0.22645636    -0.11300
C498        C  0.89339331  0.18083799  0.22606805     0.02600
H499        H  0.94552416  0.22381799  0.30469673     0.15600
H500        H  0.90370227  0.11572312  0.20451785     0.15600
C501        C  0.85960632  0.18948305  0.19788480     0.37300
C502        C  0.98512506  0.14905311  0.31467979     0.37200
N503        N  0.83233655  0.19622563  0.17537979    -0.43100
N504        N  0.00992099  0.14155498  0.33918374    -0.43100
C505        C  0.71561438  0.41153683  0.25412220     0.00500
C506        C  0.70179202  0.43765674  0.22281016    -0.11400
C507        C  0.66030230  0.45615305  0.22154056     0.02700
C508        C  0.63124686  0.44910422  0.25238012     0.00400
C509        C  0.64479108  0.42300548  0.28374738    -0.11300
C510        C  0.68624777  0.40395263  0.28478053     0.02600
H511        H  0.72399055  0.44478866  0.19947117     0.15600
H512        H  0.62264918  0.41696451  0.30743226     0.15600
C513        C  0.69686451  0.37602161  0.31718794     0.37300
C514        C  0.64947091  0.48380502  0.18892076     0.37200
N515        N  0.70513066  0.35394814  0.34347706    -0.43100
N516        N  0.64101069  0.50591046  0.16270794    -0.43100
C517        C  0.04500828  0.54358451  0.99863881     0.00500
C518        C  0.05080136  0.50782004  0.02366272    -0.11400
C519        C  0.02023072  0.47405366  0.02495236     0.02700
C520        C  0.98279610  0.47605125  0.00122963     0.00400
C521        C  0.97711217  0.51164797  0.47609699    -0.11300
C522        C  0.00760769  0.54533773  0.47471466     0.02600
H523        H  0.07968953  0.50598776  0.04175017     0.15600
H524        H  0.94820382  0.51345371  0.45801323     0.15600
C525        C  0.99868430  0.58217317  0.44978893     0.37300
C526        C  0.02888811  0.43680107  0.04942164     0.37200
N527        N  0.99144450  0.61162087  0.42971788    -0.43100
N528        N  0.03584810  0.40682006  0.06893351    -0.43100
C529        C  0.87019437  0.37071218  0.41694892     0.00500
C530        C  0.90108012  0.34500771  0.39765891    -0.11400
C531        C  0.90543624  0.34713288  0.35736580     0.02700
C532        C  0.87577869  0.37249148  0.33527908     0.00400
C533        C  0.85349024  0.40553552  0.35511933    -0.11300
C534        C  0.85211564  0.40597410  0.39560645     0.02600
H535        H  0.92395576  0.32548973  0.41417738     0.15600
H536        H  0.83870294  0.43215837  0.33907970     0.15600
C537        C  0.83758392  0.44552035  0.41416823     0.37300
C538        C  0.94383355  0.32805686  0.34057126     0.37200
N539        N  0.82699628  0.47754625  0.42913696    -0.43100
N540        N  0.97491221  0.31312586  0.32735281    -0.43100
C541        C  0.86744976  0.36931834  0.08478609     0.00500
C542        C  0.84353150  0.40079024  0.10519585    -0.11400
C543        C  0.84549454  0.40330161  0.14572788     0.02700
C544        C  0.86880765  0.37128637  0.16718728     0.00400
C545        C  0.89917937  0.34632575  0.14661344    -0.11300
C546        C  0.89994245  0.34650282  0.10605664     0.02600
H547        H  0.82574395  0.42570302  0.08950791     0.15600
H548        H  0.92420802  0.32853224  0.16218608     0.15600
C549        C  0.93709592  0.32691183  0.08759161     0.37300
C550        C  0.82771056  0.44190155  0.16362743     0.37200
N551        N  0.96713772  0.31156811  0.07293807    -0.43100
N552        N  0.81368222  0.47308169  0.17772760    -0.43100
C553        C  0.90015417  0.21010310  0.50250268     0.00500
C554        C  0.92876547  0.19774191  0.03255684    -0.11400
C555        C  0.94884246  0.15670631  0.03302966     0.02700
C556        C  0.94082518  0.12675038  0.50267669     0.00400
C557        C  0.91139665  0.13853266  0.47311628    -0.11300
C558        C  0.89068740  0.17939203  0.47304470     0.02600
H559        H  0.93684695  0.22087971  0.05518481     0.15600
H560        H  0.90412971  0.11549016  0.45013897     0.15600
C561        C  0.85896899  0.18823590  0.44305068     0.37300
C562        C  0.97926852  0.14738567  0.06404190     0.37200
N563        N  0.83359358  0.19520240  0.41889653    -0.43100
N564        N  0.00361384  0.14012461  0.08895758    -0.43100
C565        C  0.71047472  0.41220519  0.49610396     0.00500
C566        C  0.68312001  0.40169857  0.02732512    -0.11400
C567        C  0.64074895  0.41848209  0.02979007     0.02700
C568        C  0.62472978  0.44674285  0.50064680     0.00400
C569        C  0.65104040  0.45554821  0.46863215    -0.11300
C570        C  0.69319312  0.43880982  0.46594126     0.02600
H571        H  0.69482292  0.38013458  0.05001126     0.15600
H572        H  0.63894470  0.47669342  0.44570965     0.15600
C573        C  0.71728323  0.45109797  0.43200604     0.37300
C574        C  0.61404243  0.40486078  0.06177954     0.37200
N575        N  0.73489918  0.46121882  0.40391315    -0.43100
N576        N  0.59259167  0.39365640  0.08729613    -0.43100
C577        C  0.86479479  0.36778457  0.54041686     0.30300
C578        C  0.86655929  0.36754777  0.96098440     0.30700
C579        C  0.82240799  0.38285695  0.51976099    -0.05500
C580        C  0.89939089  0.39639240  0.52140135    -0.06300
C581        C  0.87161722  0.32276779  0.52101657    -0.06200
C582        C  0.82326668  0.38181210  0.97937516    -0.05500
C583        C  0.90004616  0.39616851  0.98135709    -0.06300
C584        C  0.87345721  0.32278621  0.98065226    -0.06200
C585        C  0.78148908  0.38937165  0.96634072    -0.31600
N586        N  0.75560891  0.39820702  0.99711288     0.14900
C587        C  0.78015341  0.39285349  0.52984624    -0.31600
H588        H  0.76784719  0.39542874  0.55898067     0.16900
C589        C  0.93172771  0.42463435  0.96972582    -0.30600
N590        N  0.95050560  0.44223361  0.50173352     0.13600
C591        C  0.93082600  0.42540692  0.53355957    -0.30600
C592        C  0.88119452  0.28032149  0.96932748    -0.30900
N593        N  0.88382242  0.25446173  0.00133148     0.14100
H594        H  0.88647029  0.26933495  0.94004058     0.16800
C595        C  0.87665471  0.28002471  0.53284724    -0.30900
H596        H  0.87651821  0.26845105  0.56246877     0.16800
H597        H  0.93781513  0.43468848  0.56320233     0.16800
H598        H  0.77072950  0.38685663  0.93656896     0.16800
H599        H  0.94007023  0.43258753  0.94013915     0.16800
C600        C  0.86898276  0.36932537  0.71159629     0.30700
C601        C  0.87247419  0.37026429  0.79109692     0.30700
C602        C  0.88050226  0.32533911  0.73125594    -0.05500
C603        C  0.90153095  0.40100141  0.73017336    -0.06300
C604        C  0.82606573  0.38014900  0.73238812    -0.06200
C605        C  0.88121142  0.32577339  0.77167875    -0.05500
C606        C  0.90351248  0.40117077  0.77033383    -0.06300
C607        C  0.82809792  0.38184195  0.77268191    -0.06200
C608        C  0.88566734  0.28313338  0.78370202    -0.31600
N609        N  0.89083964  0.25709042  0.75229537     0.14900
C610        C  0.88688229  0.28247763  0.72006740    -0.31600
H611        H  0.88924230  0.27071072  0.69067754     0.16900
C612        C  0.93440744  0.43127735  0.78117369    -0.30600
N613        N  0.95083324  0.44972503  0.74863566     0.13600
C614        C  0.93112508  0.43129367  0.71729792    -0.30600
C615        C  0.78687487  0.39168445  0.78544632    -0.30900
N616        N  0.75967051  0.39491732  0.75433738     0.14100
H617        H  0.77775401  0.39736983  0.81511531     0.16800
C618        C  0.78319867  0.38622537  0.72207547    -0.30900
H619        H  0.77000396  0.38487840  0.69296253     0.16800
H620        H  0.93816375  0.43902509  0.68739436     0.16800
H621        H  0.88532599  0.27160145  0.81332657     0.16800
H622        H  0.94401611  0.43946525  0.81051091     0.16800
C623        C  0.35847329  0.15062907  0.54196936     0.30700
C624        C  0.35543013  0.15054032  0.96248499     0.30700
C625        C  0.36535994  0.19546819  0.52225698    -0.05500
C626        C  0.39175268  0.12147858  0.52160260    -0.06300
C627        C  0.31501245  0.13626216  0.52322916    -0.06200
C628        C  0.36492590  0.19510802  0.98178307    -0.05500
C629        C  0.39097087  0.12208241  0.98135422    -0.06300
C630        C  0.31394567  0.13563339  0.98294692    -0.06200
C631        C  0.38154150  0.23474427  0.96992183    -0.31600
N632        N  0.38993227  0.25975933  0.00153866     0.14900
C633        C  0.37873410  0.23662783  0.53350541    -0.31600
H634        H  0.38289772  0.24814947  0.56289386     0.16900
C635        C  0.42464340  0.09588007  0.96919163    -0.30600
N636        N  0.44448222  0.07829149  0.00082751     0.13600
C637        C  0.42458063  0.09361005  0.53301866    -0.30600
C638        C  0.27299459  0.12236224  0.97161080    -0.30900
N639        N  0.24897083  0.11516341  0.00383794     0.14100
H640        H  0.26161256  0.11796107  0.94212253     0.16800
C641        C  0.27380955  0.12504464  0.53530532    -0.30900
H642        H  0.26204744  0.12499576  0.56473290     0.16800
H643        H  0.43341533  0.08508361  0.56249343     0.16800
H644        H  0.38892069  0.24411972  0.94051198     0.16800
H645        H  0.43355133  0.08913831  0.93953719     0.16800
C646        C  0.35836660  0.15127053  0.79196951     0.30700
C647        C  0.35874062  0.15164541  0.71248065     0.30700
C648        C  0.37904982  0.19166668  0.77295053    -0.05500
C649        C  0.38414859  0.11401743  0.77248686    -0.06300
C650        C  0.31390737  0.14870820  0.77177629    -0.06200
C651        C  0.37815473  0.19260081  0.73252005    -0.05500
C652        C  0.38363313  0.11442226  0.73222851    -0.06300
C653        C  0.31359414  0.14912459  0.73151308    -0.06200
C654        C  0.39344544  0.23321601  0.72172099    -0.31600
N655        N  0.40511819  0.25584397  0.75400840     0.14900
C656        C  0.39757671  0.23022370  0.78531802    -0.31600
H657        H  0.40365862  0.23977352  0.81503630     0.16900
C658        C  0.41199722  0.08301801  0.71963706    -0.30600
N659        N  0.43053087  0.06349621  0.75092754     0.13600
C660        C  0.41470132  0.08295436  0.78333060    -0.30600
C661        C  0.27119835  0.14085172  0.72006991    -0.30900
N662        N  0.24686444  0.13314480  0.75207124     0.14100
H663        H  0.25952126  0.13708863  0.69063575     0.16800
C664        C  0.27251338  0.13949543  0.78376235    -0.30900
H665        H  0.26256600  0.13505019  0.81349219     0.16800
H666        H  0.42675917  0.07689617  0.81236569     0.16800
H667        H  0.39534302  0.24596191  0.69258570     0.16800
H668        H  0.41997192  0.07616239  0.68976690     0.16800
C669        C  0.65249453  0.86220324  0.53543206     0.30700
C670        C  0.64851330  0.86141725  0.95590250     0.30700
C671        C  0.63267903  0.82079905  0.51694641    -0.05500
C672        C  0.62425968  0.89789496  0.51644770    -0.06300
C673        C  0.69574450  0.86702872  0.51440273    -0.06200
C674        C  0.63161015  0.81966957  0.97645215    -0.05500
C675        C  0.62268232  0.89767283  0.97613116    -0.06300
C676        C  0.69433752  0.86573391  0.97420500    -0.06200
C677        C  0.61629972  0.77866885  0.96634250    -0.31600
N678        N  0.60574188  0.75641549  0.49904510     0.14900
C679        C  0.61535946  0.78200819  0.53001732    -0.31600
H680        H  0.61132686  0.77243569  0.55994829     0.16900
C681        C  0.59239182  0.92837569  0.96470210    -0.30600
N682        N  0.57499167  0.94645221  0.49692232     0.13600
C683        C  0.59371387  0.92775720  0.52855384    -0.30600
C684        C  0.73604534  0.87462624  0.96181953    -0.30900
N685        N  0.76164749  0.88360127  0.49315736     0.14100
H686        H  0.74650893  0.87704066  0.93205802     0.16800
C687        C  0.73698902  0.87909983  0.52536509    -0.30900
H688        H  0.74709023  0.88753757  0.55449731     0.16800
H689        H  0.58436811  0.93447465  0.55809059     0.16800
H690        H  0.61369251  0.76525047  0.93747096     0.16800
H691        H  0.58217530  0.93550801  0.93528365     0.16800
C692        C  0.65061848  0.86151447  0.78515404     0.30700
C693        C  0.65527974  0.86246927  0.70574118     0.30700
C694        C  0.64318118  0.81722132  0.76486083    -0.05500
C695        C  0.61850188  0.89165940  0.76402123    -0.06300
C696        C  0.69469684  0.87511256  0.76783901    -0.06200
C697        C  0.64466969  0.81782726  0.72447478    -0.05500
C698        C  0.61997587  0.89178755  0.72381005    -0.06300
C699        C  0.69651857  0.87635629  0.72763519    -0.06200
C700        C  0.63179327  0.77695295  0.71201969    -0.31600
N701        N  0.62348590  0.75143784  0.74334940     0.14900
C702        C  0.63188897  0.77543523  0.77562927    -0.31600
H703        H  0.62803996  0.76372722  0.80495176     0.16900
C704        C  0.58713840  0.91940800  0.71123735    -0.30600
N705        N  0.56739710  0.93720693  0.74269160     0.13600
C706        C  0.58626785  0.91998316  0.77498850    -0.30600
C707        C  0.73731457  0.89052651  0.71771297    -0.30900
N708        N  0.76084029  0.89736851  0.75067774     0.14100
H709        H  0.74867812  0.89626375  0.68856413     0.16800
C710        C  0.73552707  0.88635887  0.78127816    -0.30900
H711        H  0.74637611  0.88571063  0.81112420     0.16800
H712        H  0.57732696  0.92768003  0.80446782     0.16800
H713        H  0.62791191  0.76675925  0.68229296     0.16800
H714        H  0.57789183  0.92547868  0.68142355     0.16800
C715        C  0.15531056  0.65847531  0.95826375     0.30700
C716        C  0.15622643  0.65997025  0.53781349     0.30700
C717        C  0.14741472  0.70332288  0.97720655    -0.05500
C718        C  0.12237272  0.62894383  0.97838827    -0.06300
C719        C  0.19852588  0.64470043  0.97797913    -0.06200
C720        C  0.14726269  0.70368863  0.51748517    -0.05500
C721        C  0.12306651  0.62897679  0.51869003    -0.06300
C722        C  0.19853716  0.64443260  0.51841019    -0.06200
C723        C  0.13498052  0.74487087  0.52894194    -0.31600
N724        N  0.12810713  0.76989357  0.49687053     0.14900
C725        C  0.13670518  0.74501394  0.96526244    -0.31600
H726        H  0.13253268  0.75574018  0.93565029     0.16900
C727        C  0.09546239  0.59613957  0.53033134    -0.30600
N728        N  0.07674062  0.57802896  0.49842082     0.13600
C729        C  0.09372532  0.59726942  0.96652475    -0.30600
C730        C  0.23730747  0.62592888  0.53029608    -0.30900
N731        N  0.26150963  0.61691832  0.49859679     0.14100
H732        H  0.24684034  0.61814196  0.55974513     0.16800
C733        C  0.23867590  0.62942931  0.96665582    -0.30900
H734        H  0.25076899  0.62761308  0.93739607     0.16800
H735        H  0.08697534  0.58782124  0.93688109     0.16800
H736        H  0.12929568  0.75518970  0.55845124     0.16800
H737        H  0.08964985  0.58572626  0.55979810     0.16800
C738        C  0.16129134  0.66019754  0.78817182     0.30700
C739        C  0.16360493  0.66132857  0.70867246     0.30700
C740        C  0.20602342  0.65061456  0.76986694    -0.05500
C741        C  0.13127768  0.62799687  0.76740362    -0.06300
C742        C  0.14951578  0.70414914  0.76856988    -0.06200
C743        C  0.20671864  0.64943299  0.72944202    -0.05500
C744        C  0.13223068  0.62811940  0.72719539    -0.06300
C745        C  0.15090762  0.70432138  0.72831054    -0.06200
C746        C  0.24655329  0.63243893  0.71926515    -0.31600
N747        N  0.27119600  0.62664573  0.75172681     0.14900
C748        C  0.24688667  0.63836977  0.78269234    -0.31600
H749        H  0.25726895  0.63532977  0.81255762     0.16900
C750        C  0.10356955  0.59606043  0.71506984    -0.30600
N751        N  0.08547640  0.57731780  0.74679257     0.13600
C752        C  0.10210552  0.59675165  0.77887356    -0.30600
C753        C  0.13944085  0.74542202  0.71586626    -0.30900
N754        N  0.13082195  0.77072459  0.74724721     0.14100
H755        H  0.13715034  0.75589296  0.68596712     0.16800
C756        C  0.13712485  0.74573364  0.77951478    -0.30900
H757        H  0.13173992  0.75666422  0.80879521     0.16800
H758        H  0.09321250  0.58903497  0.80837353     0.16800
H759        H  0.25647706  0.62345766  0.69035707     0.16800
H760        H  0.09649219  0.58661706  0.68549719     0.16800
O761        O  0.97219602  0.06331662  0.53245701    -0.73800
O762        O  0.02820240  0.95193181  0.52865408    -0.73800
O763        O  0.05607787  0.03548605  0.53282007    -0.73900
O764        O  0.94478984  0.97916693  0.52785537    -0.73900
O765        O  0.94641917  0.98226441  0.96338503    -0.73800
O766        O  0.05636654  0.04069498  0.96839553    -0.73800
O767        O  0.03088119  0.95592803  0.96423845    -0.73800
O768        O  0.97196007  0.06676320  0.96798416    -0.73900
Ni769      Ni  0.00024759  0.00742688  0.53270768     1.25400
Ni770      Ni  0.00144660  0.01156552  0.96368929     1.25400
C771        C  0.96273008  0.08349602  0.00097413     0.88400
C772        C  0.03872052  0.93542875  0.99599666     0.88300
C773        C  0.07461409  0.04728105  0.50136338     0.88400
C774        C  0.92738123  0.97112693  0.49474149     0.88500
O775        O  0.03721242  0.95569142  0.77929550    -0.73800
O776        O  0.97709122  0.06517501  0.78437692    -0.73800
O777        O  0.95225764  0.98052146  0.78242697    -0.73900
O778        O  0.06150084  0.04035545  0.78124583    -0.73900
O779        O  0.05812125  0.04453148  0.71681444    -0.73800
O780        O  0.95001263  0.98226308  0.71791470    -0.73800
O781        O  0.97306953  0.06754238  0.71993573    -0.73800
O782        O  0.03507942  0.95895156  0.71486426    -0.73900
Ni783      Ni  0.00707597  0.01030169  0.78411403     1.25400
Ni784      Ni  0.00396701  0.01337114  0.71508927     1.25400
C785        C  0.04635543  0.93928727  0.74619093     0.88400
C786        C  0.96542711  0.08460931  0.75307541     0.88300
C787        C  0.93298427  0.97162407  0.75033420     0.88400
C788        C  0.07778112  0.05245870  0.74891499     0.88500
O789        O  0.45120729  0.53202699  0.53494398    -0.73800
O790        O  0.56321132  0.47647373  0.53449435    -0.73800
O791        O  0.53399590  0.56090842  0.53463998    -0.73900
O792        O  0.47955244  0.44831332  0.53532318    -0.73900
O793        O  0.47966500  0.44741874  0.97072221    -0.73800
O794        O  0.53297037  0.56076073  0.97001742    -0.73800
O795        O  0.56216051  0.47723941  0.96995502    -0.73800
O796        O  0.45002934  0.53068935  0.97035014    -0.73900
Ni797      Ni  0.50714886  0.50440428  0.53716772     1.25400
Ni798      Ni  0.50619926  0.50404912  0.96799401     1.25400
C799        C  0.43215314  0.54032711  0.00260491     0.88400
C800        C  0.58109105  0.46752080  0.00198559     0.88300
C801        C  0.54181558  0.57969166  0.50225229     0.88400
C802        C  0.47043905  0.42942477  0.50318222     0.88500
O803        O  0.56972664  0.47813783  0.78545861    -0.73800
O804        O  0.45742115  0.53274457  0.78662249    -0.73800
O805        O  0.48705900  0.44868607  0.78807152    -0.73900
O806        O  0.54073643  0.56157470  0.78396593    -0.73900
O807        O  0.53739236  0.55986621  0.71947210    -0.73800
O808        O  0.48456618  0.44684420  0.72350064    -0.73800
O809        O  0.45478160  0.52985354  0.72210295    -0.73800
O810        O  0.56726955  0.47679592  0.72095002    -0.73900
Ni811      Ni  0.51372262  0.50536335  0.78835613     1.25400
Ni812      Ni  0.51090185  0.50326563  0.71924836     1.25400
C813        C  0.58724617  0.46893955  0.75291488     0.88400
C814        C  0.43753151  0.54011572  0.75447373     0.88300
C815        C  0.47753913  0.42893292  0.75640630     0.88400
C816        C  0.54821725  0.57921177  0.75099644     0.88500
C817        C  0.31310391  0.60528509  0.75312883     0.00500
C818        C  0.32097904  0.56988175  0.72830557    -0.11400
C819        C  0.36092516  0.54804079  0.72860568     0.02700
C820        C  0.39416538  0.56118490  0.75446187     0.00400
C821        C  0.38627833  0.59610218  0.77977188    -0.11300
C822        C  0.34645420  0.61850100  0.77899986     0.02600
H823        H  0.29549789  0.55876365  0.70887870     0.15600
H824        H  0.41182134  0.60682815  0.79936306     0.15600
C825        C  0.34165096  0.65617909  0.80362018     0.37300
C826        C  0.36632956  0.51125723  0.70295084     0.37200
N827        N  0.33801086  0.68639906  0.82341374    -0.43100
N828        N  0.37060378  0.48178006  0.68240090    -0.43100
C829        C  0.11272249  0.81444848  0.74592093     0.00500
C830        C  0.08516778  0.82632721  0.71494240    -0.11400
C831        C  0.06493765  0.86727505  0.71348071     0.02700
C832        C  0.07020148  0.89697370  0.74447288     0.00400
C833        C  0.09882274  0.88578951  0.77486676    -0.11300
C834        C  0.12095143  0.84568622  0.77524674     0.02600
H835        H  0.07871491  0.80325575  0.69186621     0.15600
H836        H  0.10478508  0.90895321  0.79803597     0.15600
C837        C  0.15375438  0.83878593  0.80470251     0.37300
C838        C  0.03878010  0.87745654  0.67981301     0.37200
N839        N  0.18035378  0.83349985  0.82812784    -0.43100
N840        N  0.01858515  0.88574398  0.65237585    -0.43100
C841        C  0.15256231  0.65565145  0.91402624     0.00500
C842        C  0.17614996  0.62337946  0.89436635    -0.11400
C843        C  0.17749096  0.62250661  0.85388976     0.02700
C844        C  0.15742540  0.65649951  0.83225760     0.00400
C845        C  0.12491292  0.68022889  0.85148594    -0.11300
C846        C  0.12101702  0.67842655  0.89184999     0.02600
H847        H  0.19133282  0.59707111  0.91040283     0.15600
H848        H  0.10045889  0.69765526  0.83495475     0.15600
C849        C  0.08146193  0.69476504  0.90876747     0.37300
C850        C  0.19484046  0.58372363  0.83595783     0.37200
N851        N  0.04952104  0.70743832  0.92219130    -0.43100
N852        N  0.20866055  0.55244263  0.82187124    -0.43100
C853        C  0.16240472  0.66439120  0.66430778     0.00500
C854        C  0.12193488  0.66152659  0.64517649    -0.11400
C855        C  0.11866926  0.66270008  0.60469185     0.02700
C856        C  0.15681259  0.66344127  0.58211035     0.00400
C857        C  0.19539326  0.67595716  0.60117510    -0.11300
C858        C  0.19802381  0.67821016  0.64166036     0.02600
H859        H  0.09237634  0.66029413  0.66193534     0.15600
H860        H  0.22308099  0.68637627  0.58441033     0.15600
C861        C  0.23520485  0.70020384  0.65817147     0.37300
C862        C  0.07597944  0.66805023  0.58774138     0.37200
N863        N  0.26502195  0.71832775  0.67088788    -0.43100
N864        N  0.04173796  0.67293161  0.57433755    -0.43100
C865        C  0.30419799  0.59746161  0.99920884     0.00500
C866        C  0.33456645  0.61119311  0.52719770    -0.11400
C867        C  0.37640398  0.59324776  0.52886252     0.02700
C868        C  0.38852249  0.56064392  0.00215940     0.00400
C869        C  0.35822095  0.54688878  0.97415192    -0.11300
C870        C  0.31629159  0.56457746  0.97265644     0.02600
H871        H  0.32571489  0.63666295  0.54743545     0.15600
H872        H  0.36704340  0.52145995  0.95382340     0.15600
C873        C  0.28596041  0.54681620  0.94476512     0.37300
C874        C  0.40675916  0.61037416  0.55706318     0.37200
N875        N  0.26192932  0.53233603  0.92227444    -0.43100
N876        N  0.43104215  0.62431544  0.57959990    -0.43100
C877        C  0.10655988  0.81187170  0.99633958     0.00500
C878        C  0.07238039  0.81948522  0.52219137    -0.11400
C879        C  0.04944546  0.85893472  0.52194453     0.02700
C880        C  0.06052154  0.89218724  0.99540804     0.00400
C881        C  0.09411759  0.88444980  0.96899225    -0.11300
C882        C  0.11733066  0.84493993  0.96943861     0.02600
H883        H  0.06281559  0.79400619  0.54216907     0.15600
H884        H  0.10312321  0.90983580  0.94867784     0.15600
C885        C  0.15318802  0.84005543  0.94316573     0.37300
C886        C  0.01331477  0.86351443  0.54806623     0.37200
N887        N  0.18193181  0.83619135  0.92204868    -0.43100
N888        N  0.98418792  0.86704021  0.56880701    -0.43100
C889        C  0.60605731  0.70752162  0.74345107     0.00500
C890        C  0.61861614  0.67861199  0.77321406    -0.11400
C891        C  0.60033426  0.63692232  0.77641976     0.02700
C892        C  0.56910892  0.62280698  0.74897253     0.00400
C893        C  0.55721382  0.65113484  0.71870052    -0.11300
C894        C  0.57469389  0.69321749  0.71596267     0.02600
H895        H  0.64291218  0.68870152  0.79423595     0.15600
H896        H  0.53294954  0.64085087  0.69766434     0.15600
C897        C  0.55769285  0.72128963  0.68584800     0.37300
C898        C  0.61510782  0.60910784  0.80767705     0.37200
N899        N  0.54388902  0.74339607  0.66146201    -0.43100
N900        N  0.62702211  0.58698797  0.83281469    -0.43100
C901        C  0.80469745  0.91428321  0.75228506     0.00500
C902        C  0.83378690  0.90353006  0.72262411    -0.11400
C903        C  0.87550502  0.92158863  0.72130182     0.02700
C904        C  0.88976498  0.95008255  0.75094091     0.00400
C905        C  0.86116712  0.96004713  0.78118176    -0.11300
C906        C  0.81877003  0.94341430  0.78167047     0.02600
H907        H  0.82366433  0.88120497  0.69997477     0.15600
H908        H  0.87126955  0.98268332  0.80364354     0.15600
C909        C  0.78980577  0.95964225  0.81102377     0.37300
C910        C  0.90263429  0.91024471  0.68895990     0.37200
N911        N  0.76677281  0.97299160  0.83456420    -0.43100
N912        N  0.92369944  0.90120828  0.66255650    -0.43100
C913        C  0.64556875  0.86469823  0.91156590     0.00500
C914        C  0.61460493  0.84037348  0.89059738    -0.11400
C915        C  0.61333478  0.84127178  0.84995179     0.02700
C916        C  0.64609402  0.86368475  0.82935909     0.00400
C917        C  0.66910383  0.89570343  0.85017722    -0.11300
C918        C  0.66788011  0.89743257  0.89064704     0.02600
H919        H  0.58910819  0.82341640  0.90569129     0.15600
H920        H  0.68624215  0.92110794  0.83485980     0.15600
C921        C  0.68607676  0.93548889  0.90929641     0.37300
C922        C  0.57511554  0.82414822  0.83083770     0.37200
N923        N  0.70029030  0.96626880  0.92404108    -0.43100
N924        N  0.54422576  0.81086693  0.81562309    -0.43100
C925        C  0.65787825  0.86287419  0.57959067     0.00500
C926        C  0.65483909  0.90251400  0.59999867    -0.11400
C927        C  0.65761822  0.90352531  0.64051439     0.02700
C928        C  0.65993628  0.86403592  0.66159967     0.00400
C929        C  0.67380516  0.82696819  0.64110540    -0.11300
C930        C  0.67426567  0.82657214  0.60054090     0.02600
H931        H  0.65307175  0.93310669  0.58441828     0.15600
H932        H  0.68658100  0.79901552  0.65659692     0.15600
C933        C  0.69563238  0.79054377  0.58157980     0.37300
C934        C  0.66407691  0.94511880  0.65921279     0.37200
N935        N  0.71328248  0.76199468  0.56640164    -0.43100
N936        N  0.67082344  0.97807812  0.67440615    -0.43100
C937        C  0.55995730  0.62452870  0.50214509     0.00500
C938        C  0.54015184  0.65669397  0.52497005    -0.11400
C939        C  0.55454763  0.70012885  0.52418749     0.02700
C940        C  0.58989054  0.71205033  0.50054520     0.00400
C941        C  0.61005677  0.67966333  0.97813292    -0.11300
C942        C  0.59558591  0.63622977  0.97889576     0.02600
H943        H  0.51253381  0.64808361  0.54269011     0.15600
H944        H  0.63770434  0.68827454  0.96047337     0.15600
C945        C  0.61916054  0.60382107  0.95716602     0.37300
C946        C  0.53113459  0.73217126  0.54642979     0.37200
N947        N  0.63830471  0.57771333  0.94011776    -0.43100
N948        N  0.51223512  0.75778728  0.56426480    -0.43100
C949        C  0.88499427  0.94803244  0.49286173     0.00500
C950        C  0.87572767  0.91639613  0.52108747    -0.11400
C951        C  0.83624416  0.89367275  0.52071361     0.02700
C952        C  0.80440700  0.90307279  0.49215268     0.00400
C953        C  0.81399051  0.93423169  0.96352411    -0.11300
C954        C  0.85372259  0.95655445  0.96355817     0.02600
H955        H  0.89973483  0.90889092  0.54328935     0.15600
H956        H  0.78978283  0.94224252  0.94169191     0.15600
C957        C  0.86049239  0.98952264  0.93428088     0.37300
C958        C  0.82982348  0.85993584  0.54928386     0.37200
N959        N  0.86582380  0.01596109  0.91083069    -0.43100
N960        N  0.82463620  0.83291137  0.57222482    -0.43100
C961        C  0.53202696  0.96832948  0.74299732     0.00500
C962        C  0.49920001  0.96387689  0.77086122    -0.11400
C963        C  0.46552959  0.99452020  0.77384943     0.02700
C964        C  0.46462177  0.03120381  0.74913299     0.00400
C965        C  0.49701920  0.03544023  0.72102745    -0.11300
C966        C  0.53020107  0.00447083  0.71746529     0.02600
H967        H  0.49953053  0.93584987  0.79004732     0.15600
H968        H  0.49659146  0.06348790  0.70185516     0.15600
C969        C  0.56186551  0.01172889  0.68766093     0.37300
C970        C  0.43124481  0.98636394  0.80113685     0.37200
N971        N  0.58599463  0.01867562  0.66290615    -0.43100
N972        N  0.40369172  0.97957513  0.82292402    -0.43100
C973        C  0.42215438  0.29973009  0.75524429     0.00500
C974        C  0.45654077  0.30960593  0.78077274    -0.11400
C975        C  0.47436272  0.35166757  0.78236953     0.02700
C976        C  0.45828447  0.38468759  0.75749667     0.00400
C977        C  0.42354030  0.37505097  0.73239992    -0.11300
C978        C  0.40480295  0.33341530  0.73172263     0.02600
H979        H  0.46991546  0.28413607  0.79915445     0.15600
H980        H  0.41028866  0.40049803  0.71388859     0.15600
C981        C  0.36617993  0.32698987  0.70849574     0.37300
C982        C  0.51013004  0.35958634  0.80874648     0.37200
N983        N  0.33498914  0.32196863  0.69011614    -0.43100
N984        N  0.53870254  0.36593312  0.82997934    -0.43100
C985        C  0.12064653  0.07453747  0.74907012     0.00500
C986        C  0.15219395  0.06007085  0.77565703    -0.11400
C987        C  0.19372089  0.07845197  0.77674324     0.02700
C988        C  0.20409326  0.11367827  0.75189174     0.00400
C989        C  0.17253714  0.12811213  0.72510069    -0.11300
C990        C  0.13122074  0.10872429  0.72328544     0.02600
H991        H  0.14485245  0.03305665  0.79485824     0.15600
H992        H  0.18024254  0.15468594  0.70559260     0.15600
C993        C  0.10003663  0.12527639  0.69544854     0.37300
C994        C  0.22572834  0.05825691  0.80178581     0.37200
N995        N  0.07507524  0.13852808  0.67309497    -0.43100
N996        N  0.25138945  0.04195714  0.82179423    -0.43100
C997        C  0.54156485  0.97923468  0.99760273     0.00500
C998        C  0.54759519  0.01842567  0.97732285    -0.11400
C999        C  0.51631437  0.05165687  0.97860542     0.02700
C1000       C  0.47807332  0.04566681  0.00016776     0.00400
C1001       C  0.47205802  0.00645315  0.52041072    -0.11300
C1002       C  0.50327353  0.97323707  0.51911548     0.02600
H1003       H  0.57723317  0.02328239  0.96115047     0.15600
H1004       H  0.44238859  0.00150340  0.53651646     0.15600
C1005       C  0.49454005  0.93255403  0.53861666     0.37300
C1006       C  0.52480800  0.09230760  0.95899195     0.37200
N1007       N  0.48759868  0.89983430  0.55413191    -0.43100
N1008       N  0.53152629  0.12503395  0.94341034    -0.43100
C1009       C  0.35185222  0.14920777  0.91825896     0.00500
C1010       C  0.33954751  0.18685039  0.89762723    -0.11400
C1011       C  0.33955882  0.18774721  0.85713054     0.02700
C1012       C  0.35442951  0.15095920  0.83615471     0.00400
C1013       C  0.35729988  0.11123106  0.85653983    -0.11300
C1014       C  0.35461529  0.10986720  0.89698730     0.02600
H1015       H  0.32774860  0.21519382  0.91294854     0.15600
H1016       H  0.35913778  0.08070884  0.84096807     0.15600
C1017       C  0.35104396  0.06764469  0.91531510     0.37300
C1018       C  0.32082420  0.22558226  0.83836472     0.37200
N1019       N  0.34776092  0.03377269  0.92984920    -0.43100
N1020       N  0.30563723  0.25600976  0.82365148    -0.43100
C1021       C  0.36233473  0.14817871  0.58619213     0.00500
C1022       C  0.33763548  0.11738240  0.60663967    -0.11400
C1023       C  0.33748578  0.11649469  0.64712116     0.02700
C1024       C  0.36094614  0.14840995  0.66825740     0.00400
C1025       C  0.39366675  0.17065124  0.64797234    -0.11300
C1026       C  0.39547898  0.16962347  0.60746515     0.02600
H1027       H  0.32038297  0.09204286  0.59119236     0.15600
H1028       H  0.41992059  0.18620307  0.66358012     0.15600
C1029       C  0.43419615  0.18623480  0.58930242     0.37300
C1030       C  0.31691119  0.07971778  0.66562273     0.37200
N1031       N  0.46543782  0.19935872  0.57499004    -0.43100
N1032       N  0.30058841  0.05000428  0.68020028    -0.43100
C1033       C  0.41049547  0.30214406  0.50176762     0.00500
C1034       C  0.39538136  0.33450448  0.52713062    -0.11400
C1035       C  0.41465706  0.37593246  0.52844659     0.02700
C1036       C  0.44932989  0.38598484  0.50341459     0.00400
C1037       C  0.46467415  0.35364019  0.97825280    -0.11300
C1038       C  0.44638776  0.31178158  0.97786015     0.02600
H1039       H  0.36816706  0.32739995  0.54582173     0.15600
H1040       H  0.49207839  0.36068274  0.95971587     0.15600
C1041       C  0.46713467  0.27871222  0.95469584     0.37300
C1042       C  0.39741832  0.40783869  0.55498437     0.37200
N1043       N  0.48410085  0.25224499  0.93629303    -0.43100
N1044       N  0.38363793  0.43331147  0.57636264    -0.43100
C1045       C  0.20484843  0.09926206  0.50449129     0.00500
C1046       C  0.17391070  0.11682512  0.97871677    -0.11400
C1047       C  0.13103124  0.10135434  0.97791103     0.02700
C1048       C  0.11846931  0.06727531  0.50305475     0.00400
C1049       C  0.14917652  0.05028177  0.52931282    -0.11300
C1050       C  0.19203168  0.06563215  0.53006113     0.02600
H1051       H  0.18327173  0.14303656  0.95941051     0.15600
H1052       H  0.14005437  0.02379319  0.54845409     0.15600
C1053       C  0.22267052  0.04452873  0.55584884     0.37300
C1054       C  0.10018534  0.12218077  0.95212346     0.37200
N1055       N  0.24708368  0.02748207  0.57659111    -0.43100
N1056       N  0.07540645  0.13911749  0.93166277    -0.43100
C1057       C  0.05226046  0.54433997  0.74660288     0.00500
C1058       C  0.01395164  0.55130940  0.72517450    -0.11400
C1059       C  0.98003194  0.52085909  0.72597749     0.02700
C1060       C  0.98464745  0.48209289  0.74773336     0.00400
C1061       C  0.02292634  0.47519466  0.76921920    -0.11300
C1062       C  0.05655793  0.50591948  0.76889389     0.02600
H1063       H  0.01010250  0.58129812  0.70880265     0.15600
H1064       H  0.02660385  0.44546356  0.78598846     0.15600
C1065       C  0.09559249  0.49681884  0.79085236     0.37300
C1066       C  0.93977988  0.53128162  0.70637395     0.37200
N1067       N  0.12680057  0.48939023  0.80857554    -0.43100
N1068       N  0.90732044  0.53977493  0.69098157    -0.43100
C1069       C  0.90581163  0.21233675  0.75388955     0.00500
C1070       C  0.93549551  0.20013731  0.78314753    -0.11400
C1071       C  0.95399598  0.15846190  0.78424071     0.02700
C1072       C  0.94363241  0.12781878  0.75505323     0.00400
C1073       C  0.91287608  0.13935755  0.72645640    -0.11300
C1074       C  0.89339326  0.18083798  0.72606811     0.02600
H1075       H  0.94552416  0.22381800  0.80469675     0.15600
H1076       H  0.90370222  0.11572312  0.70451790     0.15600
C1077       C  0.85960624  0.18948304  0.69788488     0.37300
C1078       C  0.98512510  0.14905313  0.81467978     0.37200
N1079       N  0.83233646  0.19622561  0.67537989    -0.43100
N1080       N  0.00992107  0.14155500  0.83918370    -0.43100
C1081       C  0.71561439  0.41153685  0.75412222     0.00500
C1082       C  0.70179202  0.43765676  0.72281019    -0.11400
C1083       C  0.66030231  0.45615307  0.72154060     0.02700
C1084       C  0.63124687  0.44910422  0.75238015     0.00400
C1085       C  0.64479109  0.42300547  0.78374741    -0.11300
C1086       C  0.68624778  0.40395263  0.78478055     0.02600
H1087       H  0.72399056  0.44478869  0.69947120     0.15600
H1088       H  0.62264919  0.41696450  0.80743229     0.15600
C1089       C  0.69686453  0.37602160  0.81718795     0.37300
C1090       C  0.64947092  0.48380507  0.68892082     0.37200
N1091       N  0.70513070  0.35394811  0.84347706    -0.43100
N1092       N  0.64101071  0.50591055  0.66270802    -0.43100
C1093       C  0.04500824  0.54358451  0.49863884     0.00500
C1094       C  0.05080130  0.50782006  0.52366277    -0.11400
C1095       C  0.02023067  0.47405368  0.52495241     0.02700
C1096       C  0.98279608  0.47605123  0.50122964     0.00400
C1097       C  0.97711218  0.51164801  0.97609701    -0.11300
C1098       C  0.00760771  0.54533776  0.97471466     0.02600
H1099       H  0.07968946  0.50598780  0.54175025     0.15600
H1100       H  0.94820380  0.51345377  0.95801327     0.15600
C1101       C  0.99868432  0.58217320  0.94978892     0.37300
C1102       C  0.02888804  0.43680111  0.54942173     0.37200
N1103       N  0.99144452  0.61162089  0.92971787    -0.43100
N1104       N  0.03584802  0.40682014  0.56893364    -0.43100
C1105       C  0.87019439  0.37071221  0.91694893     0.00500
C1106       C  0.90108015  0.34500775  0.89765891    -0.11400
C1107       C  0.90543626  0.34713292  0.85736580     0.02700
C1108       C  0.87577870  0.37249151  0.83527909     0.00400
C1109       C  0.85349024  0.40553554  0.85511934    -0.11300
C1110       C  0.85211564  0.40597412  0.89560646     0.02600
H1111       H  0.92395579  0.32548977  0.91417738     0.15600
H1112       H  0.83870293  0.43215838  0.83907971     0.15600
C1113       C  0.83758389  0.44552036  0.91416823     0.37300
C1114       C  0.94383356  0.32805691  0.84057125     0.37200
N1115       N  0.82699621  0.47754626  0.92913695    -0.43100
N1116       N  0.97491222  0.31312592  0.82735278    -0.43100
C1117       C  0.86744974  0.36931830  0.58478608     0.00500
C1118       C  0.84353148  0.40079021  0.60519583    -0.11400
C1119       C  0.84549453  0.40330160  0.64572786     0.02700
C1120       C  0.86880763  0.37128635  0.66718728     0.00400
C1121       C  0.89917933  0.34632570  0.64661344    -0.11300
C1122       C  0.89994241  0.34650275  0.60605664     0.02600
H1123       H  0.82574394  0.42570299  0.58950789     0.15600
H1124       H  0.92420797  0.32853218  0.66218608     0.15600
C1125       C  0.93709586  0.32691174  0.58759161     0.37300
C1126       C  0.82771057  0.44190154  0.66362740     0.37200
N1127       N  0.96713765  0.31156799  0.57293806    -0.43100
N1128       N  0.81368223  0.47308170  0.67772756    -0.43100
C1129       C  0.90015420  0.21010313  0.00250273     0.00500
C1130       C  0.92876545  0.19774189  0.53255678    -0.11400
C1131       C  0.94884246  0.15670630  0.53302960     0.02700
C1132       C  0.94082518  0.12675039  0.00267675     0.00400
C1133       C  0.91139665  0.13853269  0.97311634    -0.11300
C1134       C  0.89068741  0.17939205  0.97304476     0.02600
H1135       H  0.93684693  0.22087969  0.55518475     0.15600
H1136       H  0.90412970  0.11549019  0.95013903     0.15600
C1137       C  0.85896898  0.18823593  0.94305075     0.37300
C1138       C  0.97926854  0.14738567  0.56404183     0.37200
N1139       N  0.83359356  0.19520244  0.91889662    -0.43100
N1140       N  0.00361388  0.14012463  0.58895749    -0.43100
C1141       C  0.71047475  0.41220524  0.99610395     0.00500
C1142       C  0.68311998  0.40169851  0.52732513    -0.11400
C1143       C  0.64074893  0.41848206  0.52979010     0.02700
C1144       C  0.62472980  0.44674287  0.00064676     0.00400
C1145       C  0.65104042  0.45554821  0.96863211    -0.11300
C1146       C  0.69319313  0.43880983  0.96594122     0.02600
H1147       H  0.69482289  0.38013450  0.55001126     0.15600
H1148       H  0.63894470  0.47669340  0.94570959     0.15600
C1149       C  0.71728321  0.45109789  0.93200595     0.37300
C1150       C  0.61404241  0.40486076  0.56177958     0.37200
N1151       N  0.73489913  0.46121865  0.90391302    -0.43100
N1152       N  0.59259167  0.39365641  0.58729620    -0.43100
loop_ 
_geom_bond_atom_site_label_1 
_geom_bond_atom_site_label_2 
_geom_bond_distance 
_geom_bond_site_symmetry_2 
_ccdc_geom_bond_type 
C1            C3   1.552       .  S
C1            C5   1.549       .  S
C1            C4   1.532       .  S
C1          C541   1.534       .  S
C2            C6   1.544       .  S
C2            C8   1.544       .  S
C2            C7   1.523       .  S
C2          C529   1.528       .  S
C3           C11   1.384       .  A
C3          C582   1.395   1_554  A
C4           C15   1.379       .  A
C4          C583   1.383   1_554  A
C5           C19   1.380       .  A
C5          C584   1.395   1_554  A
C6            C9   1.379       .  A
C6          C579   1.395       .  A
C7           C13   1.372       .  A
C7          C580   1.383       .  A
C8           C16   1.380       .  A
C8          C581   1.395       .  A
C9           N10   1.360       .  A
C9           H22   1.080       .  S
N10         C587   1.364       .  A
N10         C565   1.454       .  S
C11         N586   1.364   1_554  A
C11          H12   1.080       .  S
C13         N590   1.356       .  A
C13          H23   1.083       .  S
N14          C15   1.360       .  A
N14         C589   1.356   1_554  A
N14         C520   1.438       .  S
C15          H21   1.082       .  S
C16          N17   1.361       .  A
C16          H18   1.079       .  S
N17         C595   1.361       .  A
N17         C553   1.449       .  S
C19         N593   1.361       .  A
C19          H20   1.082       .  S
C24          C26   1.548       .  S
C24          C28   1.545       .  S
C24          C27   1.534       .  S
C24         C544   1.534       .  S
C25          C29   1.544       .  S
C25          C31   1.543       .  S
C25          C30   1.529       .  S
C25         C532   1.529       .  S
C26          C34   1.384       .  A
C26          C29   1.395       .  A
C27          C38   1.378       .  A
C27          C30   1.387       .  A
C28          C42   1.377       .  A
C28          C31   1.393       .  A
C29          C32   1.377       .  A
C30          C36   1.376       .  A
C31          C39   1.380       .  A
C32          N33   1.357       .  A
C32          H45   1.082       .  S
N33          C34   1.361       .  A
N33         C493   1.447       .  S
C34          H35   1.080       .  S
C36          N37   1.359       .  A
C36          H46   1.083       .  S
N37          C38   1.360       .  A
N37         C484   1.440       .  S
C38          H44   1.082       .  S
C39          N40   1.360       .  A
C39          H41   1.078       .  S
N40          C42   1.360       .  A
N40         C505   1.448       .  S
C42          H43   1.082       .  S
C47          C49   1.548       .  S
C47          C51   1.547       .  S
C47          C50   1.534       .  S
C47         C445   1.532       .  S
C48          C52   1.548       .  S
C48          C54   1.535       .  S
C48          C53   1.538       .  S
C48         C433   1.530       .  S
C49          C57   1.383       .  A
C49         C628   1.397   1_554  A
C50          C61   1.377       .  A
C50         C629   1.389   1_554  A
C51          C65   1.383       .  A
C51         C630   1.391   1_554  A
C52          C55   1.382       .  A
C52         C625   1.397       .  A
C53          C59   1.379       .  A
C53         C626   1.389       .  A
C54          C62   1.379       .  A
C54         C627   1.391       .  A
C55          N56   1.358       .  A
C55          H68   1.081       .  S
N56         C633   1.358       .  A
N56        C1033   1.446       .  S
C57         N632   1.358       .  A
C57          H58   1.081       .  S
C59          N60   1.357       .  A
C59          H69   1.082       .  S
N60         C637   1.357       .  A
N60         C424   1.438       .  S
C61         N636   1.357       .  A
C61          H67   1.083       .  S
C62          N63   1.359       .  A
C62          H64   1.082       .  S
N63         C641   1.358       .  A
N63        C1045   1.445       .  S
C65         N639   1.358       .  A
C65          H66   1.081       .  S
C70          C72   1.542       .  S
C70          C74   1.533       .  S
C70          C73   1.547       .  S
C70         C436   1.531       .  S
C71          C75   1.552       .  S
C71          C77   1.545       .  S
C71          C76   1.530       .  S
C71         C448   1.532       .  S
C72          C80   1.380       .  A
C72          C75   1.396       .  A
C73          C84   1.386       .  A
C73          C76   1.390       .  A
C74          C88   1.373       .  A
C74          C77   1.390       .  A
C75          C78   1.383       .  A
C76          C82   1.372       .  A
C77          C85   1.385       .  A
C78          N79   1.360       .  A
C78          H91   1.080       .  S
N79          C80   1.357       .  A
N79         C397   1.445       .  S
C80          H81   1.082       .  S
C82          N83   1.355       .  A
C82          H92   1.083       .  S
N83          C84   1.362       .  A
N83         C388   1.443       .  S
C84          H90   1.082       .  S
C85          N86   1.360       .  A
C85          H87   1.081       .  S
N86          C88   1.358       .  A
N86         C412   1.447       .  S
C88          H89   1.082       .  S
C93          C95   1.545       .  S
C93          C97   1.529       .  S
C93          C96   1.539       .  S
C93         C349   1.532       .  S
C94          C98   1.555       .  S
C94         C100   1.547       .  S
C94          C99   1.537       .  S
C94         C337   1.535       .  S
C95         C103   1.381       .  A
C95         C674   1.398   1_554  A
C96         C107   1.379       .  A
C96         C675   1.392   1_554  A
C97         C111   1.374       .  A
C97         C676   1.388   1_554  A
C98         C101   1.387       .  A
C98         C671   1.398       .  A
C99         C105   1.379       .  A
C99         C672   1.392       .  A
C100        C108   1.384       .  A
C100        C673   1.388       .  A
C101        N678   1.360       .  A
C101        H114   1.081       .  S
N102        C103   1.358   1_556  A
N102        C677   1.360       .  A
N102        C364   1.447   1_556  S
C103        H104   1.082       .  S
C105        N682   1.357       .  A
C105        H115   1.083       .  S
N106        C107   1.356   1_556  A
N106        C681   1.357       .  A
N106        C997   1.438       .  S
C107        H113   1.082       .  S
C108        N685   1.362       .  A
C108        H110   1.082       .  S
N109        C111   1.358   1_556  A
N109        C684   1.362       .  A
N109        C376   1.447       .  S
C111        H112   1.082       .  S
C116        C118   1.545       .  S
C116        C120   1.545       .  S
C116        C119   1.532       .  S
C116        C340   1.535       .  S
C117        C121   1.549       .  S
C117        C123   1.534       .  S
C117        C122   1.545       .  S
C117        C352   1.532       .  S
C118        C126   1.379       .  A
C118        C121   1.395       .  A
C119        C130   1.373       .  A
C119        C122   1.389       .  A
C120        C134   1.381       .  A
C120        C123   1.390       .  A
C121        C124   1.383       .  A
C122        C128   1.384       .  A
C123        C131   1.376       .  A
C124        N125   1.360       .  A
C124        H137   1.079       .  S
N125        C126   1.359       .  A
N125        C313   1.450       .  S
C126        H127   1.081       .  S
C128        N129   1.363       .  A
C128        H138   1.081       .  S
N129        C130   1.359       .  A
N129        C385   1.447       .  S
C130        H136   1.082       .  S
C131        N132   1.361       .  A
C131        H133   1.082       .  S
N132        C134   1.360       .  A
N132        C325   1.448       .  S
C134        H135   1.081       .  S
C139        C141   1.543       .  S
C139        C143   1.548       .  S
C139        C142   1.531       .  S
C139        C265   1.531       .  S
C140        C144   1.535       .  S
C140        C146   1.545       .  S
C140        C145   1.541       .  S
C140        C280   1.533       .  S
C141        C149   1.381       .  A
C141        C720   1.390       .  A
C142        C153   1.373       .  A
C142        C721   1.391       .  A
C143        C157   1.381       .  A
C143        C722   1.396       .  A
C144        C147   1.376       .  A
C144        C717   1.390   1_554  A
C145        C151   1.380       .  A
C145        C718   1.391   1_554  A
C146        C154   1.380       .  A
C146        C719   1.396   1_554  A
C147        N148   1.361   1_554  A
C147        H160   1.082       .  S
N148        C725   1.359       .  A
N148        C877   1.447       .  S
C149        N724   1.359       .  A
C149        H150   1.080       .  S
C151        N152   1.359   1_554  A
C151        H161   1.082       .  S
N152        C729   1.357       .  A
N152        C517   1.440       .  S
C153        N728   1.357       .  A
C153        H159   1.082       .  S
C154        N155   1.357   1_554  A
C154        H156   1.082       .  S
N155        C733   1.357       .  A
N155        C865   1.443       .  S
C157        N731   1.357       .  A
C157        H158   1.081       .  S
C162        C164   1.548       .  S
C162        C166   1.548       .  S
C162        C165   1.528       .  S
C162        C268   1.531       .  S
C163        C167   1.547       .  S
C163        C169   1.534       .  S
C163        C168   1.546       .  S
C163        C277   1.534       .  S
C164        C172   1.382       .  A
C164        C167   1.396       .  A
C165        C176   1.374       .  A
C165        C168   1.388       .  A
C166        C180   1.384       .  A
C166        C169   1.391       .  A
C167        C170   1.380       .  A
C168        C174   1.385       .  A
C169        C177   1.375       .  A
C170        N171   1.359       .  A
C170        H183   1.082       .  S
N171        C172   1.358       .  A
N171        C241   1.447       .  S
C172        H173   1.081       .  S
C174        N175   1.360       .  A
C174        H184   1.082       .  S
N175        C176   1.355       .  A
N175        C481   1.439       .  S
C176        H182   1.083       .  S
C177        N178   1.361       .  A
C177        H179   1.082       .  S
N178        C180   1.363       .  A
N178        C253   1.451       .  S
C180        H181   1.079       .  S
O185       Ni193   1.917   1_655  S
O185        C771   1.281       .  A
O186       Ni193   1.911   1_565  S
O186        C772   1.280   1_554  A
O187       Ni193   1.924       .  S
O187        C197   1.283       .  A
O188       Ni193   1.922   1_665  S
O188        C198   1.283   1_554  A
O189       Ni194   1.919   1_665  S
O189        C774   1.281       .  A
O190       Ni194   1.920       .  S
O190        C773   1.281       .  A
O191       Ni194   1.930   1_565  S
O191        C196   1.284       .  A
O192       Ni194   1.925   1_655  S
O192        C195   1.283       .  A
Ni193      Ni770   2.386   1_554  S
Ni194      Ni769   2.386       .  S
C195        O761   1.281       .  A
C195        C556   1.488       .  S
C196        O762   1.280       .  A
C196        C304   1.485       .  S
C197        O766   1.281   1_554  A
C197        C472   1.485       .  S
C198        O765   1.281       .  A
C198        C373   1.487       .  S
O199       Ni207   1.921   1_565  S
O199        C209   1.282       .  A
O200       Ni207   1.917   1_655  S
O200        C210   1.282       .  A
O201       Ni207   1.921   1_665  S
O201        C211   1.282       .  A
O202       Ni207   1.917       .  S
O202        C212   1.282       .  A
O203       Ni208   1.924       .  S
O203        C212   1.282       .  A
O204       Ni208   1.920   1_665  S
O204        C211   1.282       .  A
O205       Ni208   1.920   1_655  S
O205        C210   1.282       .  A
O206       Ni208   1.922   1_565  S
O206        C209   1.282       .  A
Ni207      Ni208   2.385       .  S
C209        C256   1.491       .  S
C210        C496   1.486       .  S
C211        C328   1.487       .  S
C212        C409   1.484       .  S
O213       Ni221   1.919       .  S
O213        C799   1.282       .  A
O214       Ni221   1.929       .  S
O214        C800   1.284       .  A
O215       Ni221   1.922       .  S
O215        C225   1.282       .  A
O216       Ni221   1.920       .  S
O216        C226   1.281       .  A
O217       Ni222   1.922       .  S
O217        C802   1.282       .  A
O218       Ni222   1.926       .  S
O218        C801   1.283       .  A
O219       Ni222   1.909       .  S
O219        C224   1.280       .  A
O220       Ni222   1.914       .  S
O220        C223   1.281       .  A
Ni221      Ni798   2.388   1_554  S
Ni222      Ni797   2.388       .  S
C223        O789   1.282       .  A
C223        C292   1.480       .  S
C224        O790   1.284       .  A
C224        C568   1.487       .  S
C225        O794   1.283   1_554  A
C225        C361   1.484       .  S
C226        O793   1.282   1_554  A
C226        C460   1.483       .  S
O227       Ni235   1.918       .  S
O227        C237   1.282       .  A
O228       Ni235   1.925       .  S
O228        C238   1.283       .  A
O229       Ni235   1.923       .  S
O229        C239   1.282       .  A
O230       Ni235   1.921       .  S
O230        C240   1.282       .  A
O231       Ni236   1.918       .  S
O231        C240   1.282       .  A
O232       Ni236   1.917       .  S
O232        C239   1.281       .  A
O233       Ni236   1.913       .  S
O233        C238   1.280       .  A
O234       Ni236   1.915       .  S
O234        C237   1.281       .  A
Ni235      Ni236   2.387       .  S
C237        C508   1.484       .  S
C238        C244   1.482       .  S
C239        C400   1.482       .  S
C240        C316   1.486       .  S
C241        C242   1.405       .  A
C241        C246   1.415       .  A
C242        C243   1.399       .  A
C242        H247   1.084       .  S
C243        C244   1.412       .  A
C243        C250   1.445       .  S
C244        C245   1.404       .  A
C245        C246   1.404       .  A
C245        H248   1.085       .  S
C246        C249   1.443       .  S
C249        N251   1.157       .  T
C250        N252   1.157       .  T
C253        C254   1.407       .  A
C253        C258   1.416       .  A
C254        C255   1.401       .  A
C254        H259   1.083       .  S
C255        C256   1.414       .  A
C255        C262   1.442       .  S
C256        C257   1.406       .  A
C257        C258   1.404       .  A
C257        H260   1.085       .  S
C258        C261   1.442       .  S
C261        N263   1.157       .  T
C262        N264   1.156       .  T
C265        C266   1.405       .  A
C265        C270   1.415       .  A
C266        C267   1.398       .  A
C266        H271   1.081       .  S
C267        C268   1.419       .  A
C267        C274   1.444       .  S
C268        C269   1.408       .  A
C269        C270   1.400       .  A
C269        H272   1.081       .  S
C270        C273   1.444       .  S
C273        N275   1.157       .  T
C274        N276   1.158       .  T
C277        C278   1.409       .  A
C277        C282   1.417       .  A
C278        C279   1.401       .  A
C278        H283   1.083       .  S
C279        C280   1.415       .  A
C279        C286   1.444       .  S
C280        C281   1.408       .  A
C281        C282   1.401       .  A
C281        H284   1.083       .  S
C282        C285   1.443       .  S
C285        N287   1.158       .  T
C286        N288   1.157       .  T
C289        C294   1.415       .  A
C289        C866   1.404       .  A
C289        N731   1.443       .  S
C290        C291   1.401       .  A
C290        C865   1.404   1_554  A
C290        H295   1.084       .  S
C291        C868   1.412       .  A
C291        C298   1.444       .  S
C292        C293   1.404       .  A
C292        C867   1.412       .  A
C293        C294   1.400       .  A
C293        H296   1.085       .  S
C294        C297   1.444       .  S
C297        N299   1.157       .  T
C298        N300   1.157       .  T
C301        C306   1.415       .  A
C301        C878   1.405       .  A
C301        N724   1.447       .  S
C302        C303   1.399       .  A
C302        C877   1.405   1_554  A
C302        H307   1.084       .  S
C303        C880   1.414   1_554  A
C303        C310   1.445       .  S
C304        C305   1.405       .  A
C304        C879   1.414       .  A
C305        C306   1.405       .  A
C305        H308   1.085       .  S
C306        C309   1.442       .  S
C309        N311   1.157       .  T
C310        N312   1.157   1_455  T
C313        C314   1.407       .  A
C313        C318   1.419       .  A
C314        C315   1.402       .  A
C314        H319   1.084       .  S
C315        C316   1.413       .  A
C315        C322   1.444       .  S
C316        C317   1.404       .  A
C317        C318   1.402       .  A
C317        H320   1.085       .  S
C318        C321   1.443       .  S
C321        N323   1.158       .  T
C322        N324   1.157       .  T
C325        C326   1.405       .  A
C325        C330   1.418       .  A
C326        C327   1.401       .  A
C326        H331   1.084       .  S
C327        C328   1.414       .  A
C327        C334   1.442       .  S
C328        C329   1.405       .  A
C329        C330   1.403       .  A
C329        H332   1.085       .  S
C330        C333   1.444       .  S
C333        N335   1.158       .  T
C334        N336   1.157       .  T
C337        C338   1.408       .  A
C337        C342   1.417       .  A
C338        C339   1.403       .  A
C338        H343   1.080       .  S
C339        C340   1.417       .  A
C339        C346   1.444       .  S
C340        C341   1.406       .  A
C341        C342   1.399       .  A
C341        H344   1.081       .  S
C342        C345   1.445       .  S
C345        N347   1.157       .  T
C346        N348   1.158       .  T
C349        C350   1.408       .  A
C349        C354   1.416       .  A
C350        C351   1.401       .  A
C350        H355   1.081       .  S
C351        C352   1.413       .  A
C351        C358   1.443       .  S
C352        C353   1.407       .  A
C353        C354   1.400       .  A
C353        H356   1.081       .  S
C354        C357   1.445       .  S
C357        N359   1.157       .  T
C358        N360   1.157       .  T
C361        C362   1.404       .  A
C361        C942   1.411   1_554  A
C362        C363   1.404       .  A
C362        H367   1.084       .  S
C363        C364   1.414       .  A
C363        C370   1.443       .  S
C364        C941   1.406   1_554  A
C365        C366   1.405       .  A
C365        C940   1.406       .  A
C365        H368   1.084       .  S
C366        C937   1.411       .  A
C366        C369   1.444       .  S
C369        N371   1.157       .  T
C370        N372   1.157       .  T
C373        C374   1.405   1_556  A
C373        C954   1.415       .  A
C374        C375   1.402       .  A
C374        H379   1.085       .  S
C375        C376   1.414   1_554  A
C375        C382   1.443       .  S
C376        C953   1.407       .  A
C377        C378   1.403       .  A
C377        C952   1.407       .  A
C377        H380   1.083       .  S
C378        C949   1.415       .  A
C378        C381   1.445       .  S
C381        N383   1.157   1_565  T
C382        N384   1.157       .  T
C385        C386   1.408       .  A
C385        C390   1.415   1_565  A
C386        C387   1.402       .  A
C386        H391   1.084       .  S
C387        C388   1.411   1_565  A
C387        C394   1.443       .  S
C388        C389   1.403       .  A
C389        C390   1.400       .  A
C389        H392   1.084       .  S
C390        C393   1.441       .  S
C393        N395   1.157       .  T
C394        N396   1.157       .  T
C397        C398   1.406       .  A
C397        C402   1.414       .  A
C398        C399   1.403       .  A
C398        H403   1.084       .  S
C399        C400   1.413       .  A
C399        C406   1.444       .  S
C400        C401   1.403       .  A
C401        C402   1.402       .  A
C401        H404   1.085       .  S
C402        C405   1.443       .  S
C405        N407   1.157       .  T
C406        N408   1.157       .  T
C409        C410   1.402       .  A
C409        C414   1.414       .  A
C410        C411   1.399       .  A
C410        H415   1.085       .  S
C411        C412   1.417       .  A
C411        C418   1.444       .  S
C412        C413   1.406       .  A
C413        C414   1.406       .  A
C413        H416   1.084       .  S
C414        C417   1.444       .  S
C417        N419   1.157       .  T
C418        N420   1.158       .  T
C421        C422   1.403   1_565  A
C421       C1002   1.411       .  A
C421        N682   1.438       .  S
C422        C423   1.402       .  A
C422        H427   1.084       .  S
C423        C424   1.410       .  A
C423        C430   1.443       .  S
C424       C1001   1.403       .  A
C425        C426   1.400   1_545  A
C425       C1000   1.403       .  A
C425        H428   1.084       .  S
C426        C997   1.411   1_554  A
C426        C429   1.443       .  S
C429        N431   1.157       .  T
C430        N432   1.157       .  T
C433        C434   1.405       .  A
C433        C438   1.415       .  A
C434        C435   1.398       .  A
C434        H439   1.081       .  S
C435        C436   1.418       .  A
C435        C442   1.445       .  S
C436        C437   1.408       .  A
C437        C438   1.400       .  A
C437        H440   1.081       .  S
C438        C441   1.445       .  S
C441        N443   1.157       .  T
C442        N444   1.158       .  T
C445        C446   1.406       .  A
C445        C450   1.416       .  A
C446        C447   1.398       .  A
C446        H451   1.081       .  S
C447        C448   1.417       .  A
C447        C454   1.445       .  S
C448        C449   1.408       .  A
C449        C450   1.400       .  A
C449        H452   1.080       .  S
C450        C453   1.445       .  S
C453        N455   1.158       .  T
C454        N456   1.157       .  T
C457        C458   1.405       .  A
C457       C1038   1.416   1_554  A
C457        N632   1.446       .  S
C458        C459   1.403       .  A
C458        H463   1.084       .  S
C459        C460   1.413       .  A
C459        C466   1.444       .  S
C460       C1037   1.403   1_554  A
C461        C462   1.402       .  A
C461       C1036   1.403       .  A
C461        H464   1.085       .  S
C462       C1033   1.416       .  A
C462        C465   1.443       .  S
C465        N467   1.157       .  T
C466        N468   1.157       .  T
C469        C474   1.415       .  A
C469       C1046   1.404   1_554  A
C469        N639   1.445       .  S
C470        C471   1.404       .  A
C470       C1045   1.404       .  A
C470        H475   1.084       .  S
C471       C1048   1.414       .  A
C471        C478   1.444       .  S
C472        C473   1.404       .  A
C472       C1047   1.414   1_554  A
C473        C474   1.402       .  A
C473        H476   1.085       .  S
C474        C477   1.443       .  S
C477        N479   1.157       .  T
C478        N480   1.157       .  T
C481        C482   1.403       .  A
C481        C486   1.411       .  A
C482        C483   1.402   1_455  A
C482        H487   1.084       .  S
C483        C484   1.411       .  A
C483        C490   1.442       .  S
C484        C485   1.403   1_655  A
C485        C486   1.401       .  A
C485        H488   1.084       .  S
C486        C489   1.442       .  S
C489        N491   1.157       .  T
C490        N492   1.157       .  T
C493        C494   1.406       .  A
C493        C498   1.413       .  A
C494        C495   1.398       .  A
C494        H499   1.083       .  S
C495        C496   1.413       .  A
C495        C502   1.445       .  S
C496        C497   1.407       .  A
C497        C498   1.405       .  A
C497        H500   1.085       .  S
C498        C501   1.443       .  S
C501        N503   1.157       .  T
C502        N504   1.157   1_655  T
C505        C506   1.407       .  A
C505        C510   1.417       .  A
C506        C507   1.397       .  A
C506        H511   1.083       .  S
C507        C508   1.413       .  A
C507        C514   1.445       .  S
C508        C509   1.405       .  A
C509        C510   1.403       .  A
C509        H512   1.085       .  S
C510        C513   1.443       .  S
C513        N515   1.158       .  T
C514        N516   1.157       .  T
C517        C518   1.405   1_556  A
C517       C1098   1.413       .  A
C518        C519   1.401       .  A
C518        H523   1.084       .  S
C519        C520   1.410   1_455  A
C519        C526   1.443       .  S
C520       C1097   1.403   1_554  A
C521        C522   1.398   1_655  A
C521       C1096   1.403       .  A
C521        H524   1.084       .  S
C522       C1093   1.413       .  A
C522        C525   1.443   1_455  S
C525        N527   1.157       .  T
C526        N528   1.157       .  T
C529        C530   1.406       .  A
C529        C534   1.418       .  A
C530        C531   1.400       .  A
C530        H535   1.082       .  S
C531        C532   1.416       .  A
C531        C538   1.444       .  S
C532        C533   1.405       .  A
C533        C534   1.399       .  A
C533        H536   1.083       .  S
C534        C537   1.444       .  S
C537        N539   1.157       .  T
C538        N540   1.157       .  T
C541        C542   1.406       .  A
C541        C546   1.419       .  A
C542        C543   1.402       .  A
C542        H547   1.081       .  S
C543        C544   1.419       .  A
C543        C550   1.444       .  S
C544        C545   1.405       .  A
C545        C546   1.400       .  A
C545        H548   1.082       .  S
C546        C549   1.444       .  S
C549        N551   1.157       .  T
C550        N552   1.158       .  T
C553        C558   1.415       .  A
C553       C1130   1.407       .  A
C554        C555   1.401       .  A
C554       C1129   1.407       .  A
C554        H559   1.083       .  S
C555       C1132   1.414       .  A
C555        C562   1.445       .  S
C556        C557   1.406       .  A
C556       C1131   1.414       .  A
C557        C558   1.404       .  A
C557        H560   1.085       .  S
C558        C561   1.443       .  S
C561        N563   1.157       .  T
C562        N564   1.157   1_655  T
C565        C570   1.421       .  A
C565       C1142   1.411       .  A
C566        C567   1.405       .  A
C566       C1141   1.411   1_554  A
C566        H571   1.083       .  S
C567       C1144   1.412       .  A
C567        C574   1.444       .  S
C568        C569   1.402       .  A
C568       C1143   1.412       .  A
C569        C570   1.399       .  A
C569        H572   1.085       .  S
C570        C573   1.442       .  S
C573        N575   1.157       .  T
C574        N576   1.157       .  T
C577        C579   1.552       .  S
C577        C581   1.549       .  S
C577        C580   1.532       .  S
C577       C1117   1.534       .  S
C578        C582   1.544       .  S
C578        C584   1.544       .  S
C578        C583   1.523       .  S
C578       C1105   1.528       .  S
C579        C587   1.384       .  A
C580        C591   1.379       .  A
C581        C595   1.380       .  A
C582        C585   1.379       .  A
C583        C589   1.372       .  A
C584        C592   1.380       .  A
C585        N586   1.360       .  A
C585        H598   1.080       .  S
N586       C1141   1.454       .  S
C587        H588   1.080       .  S
C589        H599   1.083       .  S
N590        C591   1.360       .  A
N590       C1096   1.438       .  S
C591        H597   1.082       .  S
C592        N593   1.361   1_556  A
C592        H594   1.079       .  S
N593       C1129   1.449       .  S
C595        H596   1.082       .  S
C600        C602   1.548       .  S
C600        C604   1.545       .  S
C600        C603   1.534       .  S
C600       C1120   1.534       .  S
C601        C605   1.544       .  S
C601        C607   1.543       .  S
C601        C606   1.529       .  S
C601       C1108   1.529       .  S
C602        C610   1.384       .  A
C602        C605   1.395       .  A
C603        C614   1.378       .  A
C603        C606   1.387       .  A
C604        C618   1.377       .  A
C604        C607   1.393       .  A
C605        C608   1.377       .  A
C606        C612   1.376       .  A
C607        C615   1.380       .  A
C608        N609   1.357       .  A
C608        H621   1.082       .  S
N609        C610   1.361       .  A
N609       C1069   1.447       .  S
C610        H611   1.080       .  S
C612        N613   1.359       .  A
C612        H622   1.083       .  S
N613        C614   1.360       .  A
N613       C1060   1.440       .  S
C614        H620   1.082       .  S
C615        N616   1.360       .  A
C615        H617   1.078       .  S
N616        C618   1.360       .  A
N616       C1081   1.448       .  S
C618        H619   1.082       .  S
C623        C625   1.548       .  S
C623        C627   1.547       .  S
C623        C626   1.534       .  S
C623       C1021   1.532       .  S
C624        C628   1.548       .  S
C624        C630   1.535       .  S
C624        C629   1.538       .  S
C624       C1009   1.530       .  S
C625        C633   1.383       .  A
C626        C637   1.377       .  A
C627        C641   1.383       .  A
C628        C631   1.382       .  A
C629        C635   1.379       .  A
C630        C638   1.379       .  A
C631        N632   1.358   1_556  A
C631        H644   1.081       .  S
C633        H634   1.081       .  S
C635        N636   1.357   1_556  A
C635        H645   1.082       .  S
N636       C1000   1.438       .  S
C637        H643   1.083       .  S
C638        N639   1.359   1_556  A
C638        H640   1.082       .  S
C641        H642   1.081       .  S
C646        C648   1.542       .  S
C646        C650   1.533       .  S
C646        C649   1.547       .  S
C646       C1012   1.531       .  S
C647        C651   1.552       .  S
C647        C653   1.545       .  S
C647        C652   1.530       .  S
C647       C1024   1.532       .  S
C648        C656   1.380       .  A
C648        C651   1.396       .  A
C649        C660   1.386       .  A
C649        C652   1.390       .  A
C650        C664   1.373       .  A
C650        C653   1.390       .  A
C651        C654   1.383       .  A
C652        C658   1.372       .  A
C653        C661   1.385       .  A
C654        N655   1.360       .  A
C654        H667   1.080       .  S
N655        C656   1.357       .  A
N655        C973   1.445       .  S
C656        H657   1.082       .  S
C658        N659   1.355       .  A
C658        H668   1.083       .  S
N659        C660   1.362       .  A
N659        C964   1.443       .  S
C660        H666   1.082       .  S
C661        N662   1.360       .  A
C661        H663   1.081       .  S
N662        C664   1.358       .  A
N662        C988   1.447       .  S
C664        H665   1.082       .  S
C669        C671   1.545       .  S
C669        C673   1.529       .  S
C669        C672   1.539       .  S
C669        C925   1.532       .  S
C670        C674   1.555       .  S
C670        C676   1.547       .  S
C670        C675   1.537       .  S
C670        C913   1.535       .  S
C671        C679   1.381       .  A
C672        C683   1.379       .  A
C673        C687   1.374       .  A
C674        C677   1.387       .  A
C675        C681   1.379       .  A
C676        C684   1.384       .  A
C677        H690   1.081       .  S
N678        C679   1.358       .  A
N678        C940   1.447       .  S
C679        H680   1.082       .  S
C681        H691   1.083       .  S
N682        C683   1.356       .  A
C683        H689   1.082       .  S
C684        H686   1.082       .  S
N685        C687   1.358       .  A
N685        C952   1.447       .  S
C687        H688   1.082       .  S
C692        C694   1.545       .  S
C692        C696   1.545       .  S
C692        C695   1.532       .  S
C692        C916   1.535       .  S
C693        C697   1.549       .  S
C693        C699   1.534       .  S
C693        C698   1.545       .  S
C693        C928   1.532       .  S
C694        C702   1.379       .  A
C694        C697   1.395       .  A
C695        C706   1.373       .  A
C695        C698   1.389       .  A
C696        C710   1.381       .  A
C696        C699   1.390       .  A
C697        C700   1.383       .  A
C698        C704   1.384       .  A
C699        C707   1.376       .  A
C700        N701   1.360       .  A
C700        H713   1.079       .  S
N701        C702   1.359       .  A
N701        C889   1.450       .  S
C702        H703   1.081       .  S
C704        N705   1.363       .  A
C704        H714   1.081       .  S
N705        C706   1.359       .  A
N705        C961   1.447       .  S
C706        H712   1.082       .  S
C707        N708   1.361       .  A
C707        H709   1.082       .  S
N708        C710   1.360       .  A
N708        C901   1.448       .  S
C710        H711   1.081       .  S
C715        C717   1.543       .  S
C715        C719   1.548       .  S
C715        C718   1.531       .  S
C715        C841   1.531       .  S
C716        C720   1.535       .  S
C716        C722   1.545       .  S
C716        C721   1.541       .  S
C716        C856   1.533       .  S
C717        C725   1.381       .  A
C718        C729   1.373       .  A
C719        C733   1.381       .  A
C720        C723   1.376       .  A
C721        C727   1.380       .  A
C722        C730   1.380       .  A
C723        N724   1.361       .  A
C723        H736   1.082       .  S
C725        H726   1.080       .  S
C727        N728   1.359       .  A
C727        H737   1.082       .  S
N728       C1093   1.440       .  S
C729        H735   1.082       .  S
C730        N731   1.357       .  A
C730        H732   1.082       .  S
C733        H734   1.081       .  S
C738        C740   1.548       .  S
C738        C742   1.548       .  S
C738        C741   1.528       .  S
C738        C844   1.531       .  S
C739        C743   1.547       .  S
C739        C745   1.534       .  S
C739        C744   1.546       .  S
C739        C853   1.534       .  S
C740        C748   1.382       .  A
C740        C743   1.396       .  A
C741        C752   1.374       .  A
C741        C744   1.388       .  A
C742        C756   1.384       .  A
C742        C745   1.391       .  A
C743        C746   1.380       .  A
C744        C750   1.385       .  A
C745        C753   1.375       .  A
C746        N747   1.359       .  A
C746        H759   1.082       .  S
N747        C748   1.358       .  A
N747        C817   1.447       .  S
C748        H749   1.081       .  S
C750        N751   1.360       .  A
C750        H760   1.082       .  S
N751        C752   1.355       .  A
N751       C1057   1.439       .  S
C752        H758   1.083       .  S
C753        N754   1.361       .  A
C753        H755   1.082       .  S
N754        C756   1.363       .  A
N754        C829   1.451       .  S
C756        H757   1.079       .  S
O761       Ni769   1.917   1_655  S
O762       Ni769   1.911   1_565  S
O763       Ni769   1.924       .  S
O763        C773   1.283       .  A
O764       Ni769   1.922   1_665  S
O764        C774   1.283       .  A
O765       Ni770   1.919   1_665  S
O766       Ni770   1.920       .  S
O767       Ni770   1.930   1_565  S
O767        C772   1.284       .  A
O768       Ni770   1.925   1_655  S
O768        C771   1.283   1_556  A
C771       C1132   1.488       .  S
C772        C880   1.485       .  S
C773       C1048   1.485       .  S
C774        C949   1.487       .  S
O775       Ni783   1.921   1_565  S
O775        C785   1.282       .  A
O776       Ni783   1.917   1_655  S
O776        C786   1.282       .  A
O777       Ni783   1.921   1_665  S
O777        C787   1.282       .  A
O778       Ni783   1.917       .  S
O778        C788   1.282       .  A
O779       Ni784   1.924       .  S
O779        C788   1.282       .  A
O780       Ni784   1.920   1_665  S
O780        C787   1.282       .  A
O781       Ni784   1.920   1_655  S
O781        C786   1.282       .  A
O782       Ni784   1.922   1_565  S
O782        C785   1.282       .  A
Ni783      Ni784   2.385       .  S
C785        C832   1.491       .  S
C786       C1072   1.486       .  S
C787        C904   1.487       .  S
C788        C985   1.484       .  S
O789       Ni797   1.919       .  S
O790       Ni797   1.929       .  S
O791       Ni797   1.922       .  S
O791        C801   1.282       .  A
O792       Ni797   1.920       .  S
O792        C802   1.281       .  A
O793       Ni798   1.922       .  S
O794       Ni798   1.926       .  S
O795       Ni798   1.909       .  S
O795        C800   1.280   1_556  A
O796       Ni798   1.914       .  S
O796        C799   1.281   1_556  A
C799        C868   1.480       .  S
C800       C1144   1.487       .  S
C801        C937   1.484       .  S
C802       C1036   1.483       .  S
O803       Ni811   1.918       .  S
O803        C813   1.282       .  A
O804       Ni811   1.925       .  S
O804        C814   1.283       .  A
O805       Ni811   1.923       .  S
O805        C815   1.282       .  A
O806       Ni811   1.921       .  S
O806        C816   1.282       .  A
O807       Ni812   1.918       .  S
O807        C816   1.282       .  A
O808       Ni812   1.917       .  S
O808        C815   1.281       .  A
O809       Ni812   1.913       .  S
O809        C814   1.280       .  A
O810       Ni812   1.915       .  S
O810        C813   1.281       .  A
Ni811      Ni812   2.387       .  S
C813       C1084   1.484       .  S
C814        C820   1.482       .  S
C815        C976   1.482       .  S
C816        C892   1.486       .  S
C817        C818   1.405       .  A
C817        C822   1.415       .  A
C818        C819   1.399       .  A
C818        H823   1.084       .  S
C819        C820   1.412       .  A
C819        C826   1.445       .  S
C820        C821   1.404       .  A
C821        C822   1.404       .  A
C821        H824   1.085       .  S
C822        C825   1.443       .  S
C825        N827   1.157       .  T
C826        N828   1.157       .  T
C829        C830   1.407       .  A
C829        C834   1.416       .  A
C830        C831   1.401       .  A
C830        H835   1.083       .  S
C831        C832   1.414       .  A
C831        C838   1.442       .  S
C832        C833   1.406       .  A
C833        C834   1.404       .  A
C833        H836   1.085       .  S
C834        C837   1.442       .  S
C837        N839   1.157       .  T
C838        N840   1.156       .  T
C841        C842   1.405       .  A
C841        C846   1.415       .  A
C842        C843   1.398       .  A
C842        H847   1.081       .  S
C843        C844   1.419       .  A
C843        C850   1.444       .  S
C844        C845   1.408       .  A
C845        C846   1.400       .  A
C845        H848   1.081       .  S
C846        C849   1.444       .  S
C849        N851   1.157       .  T
C850        N852   1.158       .  T
C853        C854   1.409       .  A
C853        C858   1.417       .  A
C854        C855   1.401       .  A
C854        H859   1.083       .  S
C855        C856   1.415       .  A
C855        C862   1.444       .  S
C856        C857   1.408       .  A
C857        C858   1.401       .  A
C857        H860   1.083       .  S
C858        C861   1.443       .  S
C861        N863   1.158       .  T
C862        N864   1.157       .  T
C865        C870   1.415       .  A
C866        C867   1.401       .  A
C866        H871   1.084       .  S
C867        C874   1.444       .  S
C868        C869   1.404   1_554  A
C869        C870   1.400       .  A
C869        H872   1.085       .  S
C870        C873   1.444       .  S
C873        N875   1.157       .  T
C874        N876   1.157       .  T
C877        C882   1.415       .  A
C878        C879   1.399       .  A
C878        H883   1.084       .  S
C879        C886   1.445       .  S
C880        C881   1.405       .  A
C881        C882   1.405       .  A
C881        H884   1.085       .  S
C882        C885   1.442       .  S
C885        N887   1.157       .  T
C886        N888   1.157   1_455  T
C889        C890   1.407       .  A
C889        C894   1.419       .  A
C890        C891   1.402       .  A
C890        H895   1.084       .  S
C891        C892   1.413       .  A
C891        C898   1.444       .  S
C892        C893   1.404       .  A
C893        C894   1.402       .  A
C893        H896   1.085       .  S
C894        C897   1.443       .  S
C897        N899   1.158       .  T
C898        N900   1.157       .  T
C901        C902   1.405       .  A
C901        C906   1.418       .  A
C902        C903   1.401       .  A
C902        H907   1.084       .  S
C903        C904   1.414       .  A
C903        C910   1.442       .  S
C904        C905   1.405       .  A
C905        C906   1.403       .  A
C905        H908   1.085       .  S
C906        C909   1.444       .  S
C909        N911   1.158       .  T
C910        N912   1.157       .  T
C913        C914   1.408       .  A
C913        C918   1.417       .  A
C914        C915   1.403       .  A
C914        H919   1.080       .  S
C915        C916   1.417       .  A
C915        C922   1.444       .  S
C916        C917   1.406       .  A
C917        C918   1.399       .  A
C917        H920   1.081       .  S
C918        C921   1.445       .  S
C921        N923   1.157       .  T
C922        N924   1.158       .  T
C925        C926   1.408       .  A
C925        C930   1.416       .  A
C926        C927   1.401       .  A
C926        H931   1.081       .  S
C927        C928   1.413       .  A
C927        C934   1.443       .  S
C928        C929   1.407       .  A
C929        C930   1.400       .  A
C929        H932   1.081       .  S
C930        C933   1.445       .  S
C933        N935   1.157       .  T
C934        N936   1.157       .  T
C937        C938   1.404       .  A
C938        C939   1.404       .  A
C938        H943   1.084       .  S
C939        C940   1.414       .  A
C939        C946   1.443       .  S
C941        C942   1.405       .  A
C941        H944   1.084       .  S
C942        C945   1.444       .  S
C945        N947   1.157       .  T
C946        N948   1.157       .  T
C949        C950   1.405       .  A
C950        C951   1.402       .  A
C950        H955   1.085       .  S
C951        C952   1.414       .  A
C951        C958   1.443       .  S
C953        C954   1.403       .  A
C953        H956   1.083       .  S
C954        C957   1.445       .  S
C957        N959   1.157   1_565  T
C958        N960   1.157       .  T
C961        C962   1.408       .  A
C961        C966   1.415   1_565  A
C962        C963   1.402       .  A
C962        H967   1.084       .  S
C963        C964   1.411   1_565  A
C963        C970   1.443       .  S
C964        C965   1.403       .  A
C965        C966   1.400       .  A
C965        H968   1.084       .  S
C966        C969   1.441       .  S
C969        N971   1.157       .  T
C970        N972   1.157       .  T
C973        C974   1.406       .  A
C973        C978   1.414       .  A
C974        C975   1.403       .  A
C974        H979   1.084       .  S
C975        C976   1.413       .  A
C975        C982   1.444       .  S
C976        C977   1.403       .  A
C977        C978   1.402       .  A
C977        H980   1.085       .  S
C978        C981   1.443       .  S
C981        N983   1.157       .  T
C982        N984   1.157       .  T
C985        C986   1.402       .  A
C985        C990   1.414       .  A
C986        C987   1.399       .  A
C986        H991   1.085       .  S
C987        C988   1.417       .  A
C987        C994   1.444       .  S
C988        C989   1.406       .  A
C989        C990   1.406       .  A
C989        H992   1.084       .  S
C990        C993   1.444       .  S
C993        N995   1.157       .  T
C994        N996   1.158       .  T
C997        C998   1.403   1_565  A
C998        C999   1.402       .  A
C998       H1003   1.084       .  S
C999       C1000   1.410   1_556  A
C999       C1006   1.443       .  S
C1001      C1002   1.400   1_545  A
C1001      H1004   1.084       .  S
C1002      C1005   1.443       .  S
C1005      N1007   1.157       .  T
C1006      N1008   1.157       .  T
C1009      C1010   1.405       .  A
C1009      C1014   1.415       .  A
C1010      C1011   1.398       .  A
C1010      H1015   1.081       .  S
C1011      C1012   1.418       .  A
C1011      C1018   1.445       .  S
C1012      C1013   1.408       .  A
C1013      C1014   1.400       .  A
C1013      H1016   1.081       .  S
C1014      C1017   1.445       .  S
C1017      N1019   1.157       .  T
C1018      N1020   1.158       .  T
C1021      C1022   1.406       .  A
C1021      C1026   1.416       .  A
C1022      C1023   1.398       .  A
C1022      H1027   1.081       .  S
C1023      C1024   1.417       .  A
C1023      C1030   1.445       .  S
C1024      C1025   1.408       .  A
C1025      C1026   1.400       .  A
C1025      H1028   1.080       .  S
C1026      C1029   1.445       .  S
C1029      N1031   1.158       .  T
C1030      N1032   1.157       .  T
C1033      C1034   1.405       .  A
C1034      C1035   1.403       .  A
C1034      H1039   1.084       .  S
C1035      C1036   1.413       .  A
C1035      C1042   1.444       .  S
C1037      C1038   1.402       .  A
C1037      H1040   1.085       .  S
C1038      C1041   1.443       .  S
C1041      N1043   1.157       .  T
C1042      N1044   1.157       .  T
C1045      C1050   1.415       .  A
C1046      C1047   1.404       .  A
C1046      H1051   1.084       .  S
C1047      C1054   1.444       .  S
C1048      C1049   1.404       .  A
C1049      C1050   1.402       .  A
C1049      H1052   1.085       .  S
C1050      C1053   1.443       .  S
C1053      N1055   1.157       .  T
C1054      N1056   1.157       .  T
C1057      C1058   1.403       .  A
C1057      C1062   1.411       .  A
C1058      C1059   1.402   1_455  A
C1058      H1063   1.084       .  S
C1059      C1060   1.411       .  A
C1059      C1066   1.442       .  S
C1060      C1061   1.403   1_655  A
C1061      C1062   1.401       .  A
C1061      H1064   1.084       .  S
C1062      C1065   1.442       .  S
C1065      N1067   1.157       .  T
C1066      N1068   1.157       .  T
C1069      C1070   1.406       .  A
C1069      C1074   1.413       .  A
C1070      C1071   1.398       .  A
C1070      H1075   1.083       .  S
C1071      C1072   1.413       .  A
C1071      C1078   1.445       .  S
C1072      C1073   1.407       .  A
C1073      C1074   1.405       .  A
C1073      H1076   1.085       .  S
C1074      C1077   1.443       .  S
C1077      N1079   1.157       .  T
C1078      N1080   1.157   1_655  T
C1081      C1082   1.407       .  A
C1081      C1086   1.417       .  A
C1082      C1083   1.397       .  A
C1082      H1087   1.083       .  S
C1083      C1084   1.413       .  A
C1083      C1090   1.445       .  S
C1084      C1085   1.405       .  A
C1085      C1086   1.403       .  A
C1085      H1088   1.085       .  S
C1086      C1089   1.443       .  S
C1089      N1091   1.158       .  T
C1090      N1092   1.157       .  T
C1093      C1094   1.405       .  A
C1094      C1095   1.401       .  A
C1094      H1099   1.084       .  S
C1095      C1096   1.410   1_455  A
C1095      C1102   1.443       .  S
C1097      C1098   1.398   1_655  A
C1097      H1100   1.084       .  S
C1098      C1101   1.443   1_455  S
C1101      N1103   1.157       .  T
C1102      N1104   1.157       .  T
C1105      C1106   1.406       .  A
C1105      C1110   1.418       .  A
C1106      C1107   1.400       .  A
C1106      H1111   1.082       .  S
C1107      C1108   1.416       .  A
C1107      C1114   1.444       .  S
C1108      C1109   1.405       .  A
C1109      C1110   1.399       .  A
C1109      H1112   1.083       .  S
C1110      C1113   1.444       .  S
C1113      N1115   1.157       .  T
C1114      N1116   1.157       .  T
C1117      C1118   1.406       .  A
C1117      C1122   1.419       .  A
C1118      C1119   1.402       .  A
C1118      H1123   1.081       .  S
C1119      C1120   1.419       .  A
C1119      C1126   1.444       .  S
C1120      C1121   1.405       .  A
C1121      C1122   1.400       .  A
C1121      H1124   1.082       .  S
C1122      C1125   1.444       .  S
C1125      N1127   1.157       .  T
C1126      N1128   1.158       .  T
C1129      C1134   1.415   1_554  A
C1130      C1131   1.401       .  A
C1130      H1135   1.083       .  S
C1131      C1138   1.445       .  S
C1132      C1133   1.406   1_554  A
C1133      C1134   1.404       .  A
C1133      H1136   1.085       .  S
C1134      C1137   1.443       .  S
C1137      N1139   1.157       .  T
C1138      N1140   1.157   1_655  T
C1141      C1146   1.421       .  A
C1142      C1143   1.405       .  A
C1142      H1147   1.083       .  S
C1143      C1150   1.444       .  S
C1144      C1145   1.402   1_554  A
C1145      C1146   1.399       .  A
C1145      H1148   1.085       .  S
C1146      C1149   1.442       .  S
C1149      N1151   1.157       .  T
C1150      N1152   1.157       .  T
