geometry optimzed in LAMMPS
_audit_creation_date              2020-12-01 
_audit_creation_method            'lammps2cif' 
_symmetry_space_group_name_H-M    'P1' 
_symmetry_Int_Tables_number       1 
_symmetry_cell_setting            triclinic 
loop_ 
_symmetry_equiv_pos_as_xyz 
  x,y,z 
_cell_length_a                    23.45114961 
_cell_length_b                    33.98973414206526 
_cell_length_c                    34.13661612740726 
_cell_angle_alpha                 90.93104213242118 
_cell_angle_beta                  90.03363592485074 
_cell_angle_gamma                 89.97373221564261 
loop_ 
_atom_site_label 
_atom_site_type_symbol 
_atom_site_fract_x 
_atom_site_fract_y 
_atom_site_fract_z 
_atom_site_charge 
O1          O  0.35365654  0.26327240  0.02696911    -0.87800
C2          C  0.19842350  0.29106690  0.07058823     0.88200
Mg3        Mg  0.37786748  0.27555153  0.96830778     1.58100
O4          O  0.21985987  0.19078196  0.04953971    -0.87500
O5          O  0.34855132  0.21282591  0.06597352    -0.74900
C6          C  0.15942808  0.21612680  0.85907816     0.93300
O7          O  0.27254153  0.33555649  0.00526290    -0.74700
O8          O  0.20143385  0.23979909  0.85782559    -0.82200
Mg9        Mg  0.31684781  0.31131306  0.05988955     1.58000
C10         C  0.09839080  0.12623425  0.99008987     0.93200
O11         O  0.36173948  0.29249902  0.11640270    -0.80500
H12         H  0.26445858  0.14120157  0.05620339    -0.05800
C13         C  0.13769557  0.25268087  0.96491650     0.88100
O14         O  0.35864052  0.21203369  0.94866888    -0.75000
O15         O  0.24547023  0.27466587  0.07161410    -0.87700
O16         O  0.10489684  0.14754595  0.02085694    -0.80500
C17         C  0.12827355  0.21001763  0.13238047     0.93300
C18         C  0.35366608  0.27189786  0.14678306     0.93200
Mg19       Mg  0.19525264  0.17552500  0.94552026     1.58000
O20         O  0.14976263  0.19531080  0.88911873    -0.80500
O21         O  0.23917247  0.15053161  0.00025301    -0.74700
O22         O  0.17988252  0.22177247  0.13530196    -0.80500
O23         O  0.39001587  0.35329568  0.04695321    -0.82300
O24         O  0.33256745  0.26573406  0.87056087    -0.80600
C25         C  0.24152310  0.16001933  0.03646019     0.87600
O26         O  0.26762869  0.21137501  0.93401120    -0.87700
O27         O  0.15918497  0.22294415  0.97919873    -0.87800
O28         O  0.16443436  0.27336871  0.94030241    -0.74900
Mg29       Mg  0.26274305  0.21899362  0.09800471     1.58000
O30         O  0.10682650  0.19918828  0.09973140    -0.82300
H31         H  0.41713905  0.22455198  0.03206096    -0.06000
O32         O  0.29255268  0.29467507  0.95675940    -0.87500
H33         H  0.24791669  0.34404532  0.94907659    -0.05800
H34         H  0.31763740  0.16426009  0.92605566    -0.06000
C35         C  0.27072978  0.32560169  0.96921408     0.87600
C36         C  0.37530312  0.23361570  0.04140483     0.88200
C37         C  0.31453855  0.19476132  0.93527825     0.88200
H38         H  0.09579855  0.26186561  0.97436855    -0.06000
O39         O  0.15433831  0.27355508  0.05752993    -0.75000
Mg40       Mg  0.25029599  0.26736945  0.90826804     1.58000
H41         H  0.19514273  0.32155800  0.07977531    -0.06000
C42         C  0.41013852  0.36150818  0.01345567     0.93200
O43         O  0.40559756  0.28727106  0.90666511    -0.82200
C44         C  0.38410259  0.27742424  0.87378539     0.93200
O45         O  0.31260094  0.24738241  0.14851685    -0.82200
Mg46       Mg  0.13451660  0.21016391  0.03779614     1.58200
O47         O  0.40447709  0.33797134  0.98438795    -0.80500
O48         O  0.12083732  0.13543677  0.95763196    -0.82200
O49         O  0.83633846  0.76950182  0.02360072    -0.87800
C50         C  0.67536218  0.79271470  0.06004194     0.88200
Mg51       Mg  0.86574365  0.78433978  0.96601732     1.58100
O52         O  0.70329446  0.69315247  0.04025455    -0.87500
O53         O  0.82849428  0.71838471  0.06176340    -0.74900
C54         C  0.66391969  0.71517708  0.84678649     0.93300
O55         O  0.75360533  0.83912052  0.99947644    -0.74700
O56         O  0.70356005  0.74084761  0.84716327    -0.82200
Mg57       Mg  0.79407375  0.81533505  0.05618610     1.58000
C58         C  0.59692407  0.62469336  0.97551888     0.93200
O59         O  0.83501587  0.79515328  0.11469532    -0.80500
H60         H  0.75052634  0.64529739  0.04984741    -0.05800
C61         C  0.62806695  0.75225884  0.95073919     0.88100
O62         O  0.85393591  0.72030508  0.94499602    -0.75000
O63         O  0.72270139  0.77718757  0.06408611    -0.87700
O64         O  0.59590464  0.64743862  0.00556485    -0.80500
C65         C  0.60092758  0.70992065  0.11811628     0.93300
C66         C  0.82408820  0.77355663  0.14411510     0.93200
Mg67       Mg  0.69414256  0.67717652  0.93551376     1.58000
O68         O  0.65397359  0.69423228  0.87664989    -0.80500
O69         O  0.73310082  0.65420823  0.99247695    -0.74700
O70         O  0.65245273  0.72087243  0.12407376    -0.80500
O71         O  0.86655793  0.85950785  0.04728422    -0.82300
O72         O  0.83175199  0.77119187  0.86672512    -0.80600
C73         C  0.72899903  0.66333469  0.02864305     0.87600
O74         O  0.76423755  0.71596712  0.92746579    -0.87700
O75         O  0.65018225  0.72349057  0.96650741    -0.87800
O76         O  0.65592179  0.77383408  0.92746605    -0.74900
Mg77       Mg  0.73939965  0.72143843  0.09051779     1.58000
O78         O  0.58301896  0.70017525  0.08411351    -0.82300
H79         H  0.89976797  0.73112094  0.03089586    -0.06000
O80         O  0.78028504  0.80008842  0.95075121    -0.87500
H81         H  0.73243101  0.84791593  0.94266568    -0.05800
H82         H  0.81864601  0.67104209  0.92097877    -0.06000
C83         C  0.75501240  0.82983986  0.96314205     0.87600
C84         C  0.85700052  0.73970506  0.03849330     0.88200
C85         C  0.81231476  0.70125477  0.93022984     0.88200
H86         H  0.58477310  0.75984427  0.95776370    -0.06000
O87         O  0.63385359  0.77452760  0.04409971    -0.75000
Mg88       Mg  0.74529440  0.77079893  0.90006159     1.58000
H89         H  0.66979939  0.82312764  0.06893615    -0.06000
C90         C  0.88745791  0.87020465  0.01467863     0.93200
O91         O  0.89876884  0.79793626  0.90507478    -0.82200
C92         C  0.88142719  0.78585014  0.87164289     0.93200
O93         O  0.78239601  0.74953080  0.14354435    -0.82200
Mg94       Mg  0.61887159  0.71076457  0.02364302     1.58200
O95         O  0.88501609  0.84815877  0.98419916    -0.80500
O96         O  0.62286026  0.63380136  0.94427586    -0.82200
O97         O  0.85267548  0.23423739  0.47868728    -0.87800
C98         C  0.69589726  0.21060905  0.43534931     0.88200
Mg99       Mg  0.87689379  0.22002448  0.53701800     1.58100
O100        O  0.72270964  0.30986597  0.45749192    -0.87500
O101        O  0.84968314  0.28527509  0.44031609    -0.74900
C102        C  0.66029540  0.28355066  0.64698661     0.93300
O103        O  0.76843939  0.16363575  0.49915125    -0.74700
O104        O  0.70118402  0.25885254  0.64798348    -0.82200
Mg105      Mg  0.81340647  0.18813738  0.44485403     1.58000
C106        C  0.60724985  0.37814117  0.51598992     0.93200
O107        O  0.85941740  0.20719360  0.38894103    -0.80500
H108        H  0.77005292  0.35832335  0.45095419    -0.05800
C109        C  0.63777585  0.24934184  0.54152085     0.88100
O110        O  0.86026524  0.28371127  0.55761139    -0.75000
O111        O  0.74348793  0.22619706  0.43398408    -0.87700
O112        O  0.61244720  0.35537666  0.48622595    -0.80500
C113        C  0.62825073  0.29374603  0.37515259     0.93300
C114        C  0.85152012  0.22803325  0.35872537     0.93200
Mg115      Mg  0.69914937  0.32525744  0.56148513     1.58000
O116        O  0.65281763  0.30574894  0.61763390    -0.80500
O117        O  0.74442384  0.34931276  0.50695646    -0.74700
O118        O  0.67976262  0.28191405  0.37133183    -0.80500
O119        O  0.88480304  0.14519132  0.45626271    -0.82300
O120        O  0.83250264  0.23081969  0.63462152    -0.80600
C121        C  0.74604868  0.33994395  0.47072718     0.87600
O122        O  0.76935678  0.28694876  0.57242749    -0.87700
O123        O  0.66078251  0.27875970  0.52772214    -0.87800
O124        O  0.66357688  0.22728304  0.56541793    -0.74900
Mg125      Mg  0.76331898  0.28182299  0.40835401     1.58000
O126        O  0.60855096  0.30411418  0.40832604    -0.82300
H127        H  0.91798201  0.27172391  0.47411881    -0.06000
O128        O  0.79075407  0.20289325  0.54852591    -0.87500
H129        H  0.74372637  0.15441571  0.55521751    -0.05800
H130        H  0.82222934  0.33250175  0.58063152    -0.06000
C131        C  0.76733269  0.17280674  0.53541696     0.87600
C132        C  0.87547709  0.26363196  0.46464625     0.88200
C133        C  0.81723964  0.30215884  0.57116177     0.88200
H134        H  0.59520799  0.24148925  0.53202301    -0.06000
O135        O  0.65284550  0.22862061  0.44933290    -0.75000
Mg136      Mg  0.74965125  0.23089811  0.59732178     1.58000
H137        H  0.69132281  0.18028636  0.42580921    -0.06000
C138        C  0.90637251  0.13500937  0.48875061     0.93200
O139        O  0.90452843  0.20747976  0.59870407    -0.82200
C140        C  0.88379493  0.21850629  0.63151012     0.93200
O141        O  0.81117352  0.25314933  0.35725812    -0.82200
Mg142      Mg  0.63675796  0.29228105  0.46951293     1.58200
O143        O  0.90165966  0.15657580  0.51946097    -0.80500
O144        O  0.62727249  0.36867245  0.54917648    -0.82200
O145        O  0.33892738  0.73274324  0.46731322    -0.87800
C146        C  0.18129801  0.70062175  0.43206066     0.88200
Mg147      Mg  0.37034754  0.72200586  0.52496503     1.58100
O148        O  0.20042423  0.80135523  0.45060225    -0.87500
O149        O  0.32763302  0.78229538  0.42786814    -0.74900
C150        C  0.16034026  0.78041142  0.64519885     0.93300
O151        O  0.26422378  0.65992947  0.49400111    -0.74700
O152        O  0.20309838  0.75714489  0.64510224    -0.82200
Mg153      Mg  0.30140180  0.68371763  0.43646699     1.58000
C154        C  0.08516645  0.86602808  0.51301885     0.93200
O155        O  0.33988012  0.70233009  0.37700495    -0.80500
H156        H  0.24254614  0.85140626  0.44093983    -0.05800
C157        C  0.13009609  0.74044387  0.54108522     0.88100
O158        O  0.34965234  0.78530198  0.54457299    -0.75000
O159        O  0.22697892  0.71817381  0.42749879    -0.87700
O160        O  0.08909503  0.84311504  0.48324553    -0.80500
C161        C  0.10023432  0.77937305  0.37264712     0.93300
C162        C  0.32762202  0.72323013  0.34738444     0.93200
Mg163      Mg  0.18621574  0.81905292  0.55560166     1.58000
O164        O  0.14772256  0.80041207  0.61500114    -0.80500
O165        O  0.22345245  0.84283685  0.49815718    -0.74700
O166        O  0.15245467  0.77010405  0.36684978    -0.80500
O167        O  0.37771530  0.64442223  0.44628507    -0.82300
O168        O  0.33595202  0.73196549  0.62549260    -0.80600
C169        C  0.22228607  0.83265326  0.46210652     0.87600
O170        O  0.26092531  0.78461148  0.56478602    -0.87700
O171        O  0.14893803  0.77000467  0.52492569    -0.87800
O172        O  0.16008601  0.72083893  0.56484625    -0.74900
Mg173      Mg  0.23900061  0.77413548  0.40017253     1.58000
O174        O  0.08223972  0.78864642  0.40663725    -0.82300
H175        H  0.40023318  0.77254983  0.45864292    -0.06000
O176        O  0.28747069  0.70110867  0.54178524    -0.87500
H177        H  0.24491896  0.65117935  0.55115568    -0.05800
H178        H  0.30972049  0.83272169  0.56881626    -0.06000
C179        C  0.26536084  0.66995387  0.53010605     0.87600
C180        C  0.35767899  0.76249014  0.45142627     0.88200
C181        C  0.30676696  0.80198544  0.56037935     0.88200
H182        H  0.08746454  0.73040810  0.53400650    -0.06000
O183        O  0.13839330  0.71708558  0.44805975    -0.75000
Mg184      Mg  0.24894760  0.72880340  0.59234826     1.58000
H185        H  0.17859205  0.66984360  0.42369273    -0.06000
C186        C  0.40400420  0.63710361  0.47793995     0.93200
O187        O  0.40595383  0.71304331  0.58540778    -0.82200
C188        C  0.38796413  0.72226001  0.61948513     0.93200
O189        O  0.28514334  0.74670264  0.34758301    -0.82200
Mg190      Mg  0.11771585  0.78042426  0.46719126     1.58200
O191        O  0.40017898  0.65963744  0.50801565    -0.80500
O192        O  0.10956198  0.85836848  0.54532175    -0.82200
C193        C  0.00233356  0.95983628  0.53588091    -0.13800
C194        C  0.00711884  0.97967149  0.50024033     0.16600
C195        C  0.03673005  0.96145952  0.46866705     0.02800
C196        C  0.05843123  0.92333149  0.47316461    -0.12300
C197        C  0.05413688  0.90366756  0.50892140    -0.03400
C198        C  0.02549043  0.92215235  0.54062587     0.02100
C199        C  0.98019220  0.01910690  0.49686067     0.08900
N200        N  0.04709507  0.98159345  0.43257159     0.65300
H201        H  0.08190069  0.90979177  0.44915168     0.18200
N202        N  0.01821092  0.90279641  0.57735587     0.75800
H203        H  0.97932095  0.97351684  0.56002804     0.09700
C204        C  0.94109360  0.02801828  0.46664575     0.03400
C205        C  0.92031996  0.06659329  0.46367078    -0.05300
C206        C  0.93529452  0.09619152  0.49106086    -0.23700
C207        C  0.97346499  0.08687188  0.52167836     0.12700
C208        C  0.99529988  0.04860658  0.52416714    -0.12800
N209        N  0.92067698  0.99826235  0.43960658     0.64300
H210        H  0.88984348  0.07299739  0.44077525     0.12200
N211        N  0.99160069  0.11589398  0.54998245     0.61000
H212        H  0.02552162  0.04204057  0.54719720     0.08300
O213        O  0.99976452  0.86792649  0.57812924    -0.40500
O214        O  0.02432038  0.92182384  0.60914885    -0.39700
O215        O  0.05929211  0.01777315  0.43291083    -0.39700
O216        O  0.05038235  0.96239366  0.40067046    -0.37400
O217        O  0.99122517  0.10800627  0.58599085    -0.38300
O218        O  0.01511993  0.14718224  0.53884626    -0.34400
O219        O  0.91039085  0.96388876  0.45115635    -0.35800
O220        O  0.90720126  0.00728916  0.40507596    -0.40100
C221        C  0.51179788  0.56046589  0.50998248    -0.13800
C222        C  0.49165938  0.52675454  0.49013873     0.16600
C223        C  0.44381981  0.52987810  0.46505367     0.02800
C224        C  0.41841488  0.56684399  0.45994188    -0.12300
C225        C  0.43788811  0.60044186  0.48040486    -0.03400
C226        C  0.48575739  0.59723711  0.50540649     0.02100
C227        C  0.52222569  0.48899786  0.49601468     0.08900
N228        N  0.41930254  0.49594008  0.44569413     0.65300
H229        H  0.38100107  0.56894283  0.44144636     0.18200
N230        N  0.50945960  0.63095129  0.52548813     0.75800
H231        H  0.54901166  0.55824025  0.52866555     0.09700
C232        C  0.54529030  0.46666471  0.46450507     0.03400
C233        C  0.57148086  0.43047800  0.47218282    -0.05300
C234        C  0.57808393  0.41667262  0.51063797    -0.23700
C235        C  0.55696313  0.44008247  0.54212157     0.12700
C236        C  0.52843967  0.47534463  0.53434081    -0.12800
N237        N  0.54372778  0.48046888  0.42485827     0.64300
H238        H  0.58870409  0.41358744  0.44774012     0.12200
N239        N  0.56385787  0.42895507  0.58211689     0.61000
H240        H  0.51141708  0.49259052  0.55863884     0.08300
O241        O  0.51724591  0.66263211  0.50744485    -0.40500
O242        O  0.52956076  0.62761362  0.55959514    -0.39700
O243        O  0.41620000  0.46347577  0.46301635    -0.39700
O244        O  0.39535989  0.49932056  0.41277492    -0.37400
O245        O  0.61281573  0.43045919  0.59744856    -0.38300
O246        O  0.52070620  0.42791111  0.60416385    -0.34400
O247        O  0.55170376  0.51638610  0.41776202    -0.35800
O248        O  0.54033661  0.45621301  0.39653697    -0.40100
C249        C  0.99559241  0.82073555  0.80068418    -0.13800
C250        C  0.00301108  0.78699514  0.77702302     0.16600
C251        C  0.96843778  0.75380794  0.78341709     0.02800
C252        C  0.92719980  0.75484704  0.81318543    -0.12300
C253        C  0.92072609  0.78812471  0.83770318    -0.03400
C254        C  0.95477474  0.82179289  0.83095232     0.02100
C255        C  0.04472174  0.78749507  0.74427641     0.08900
N256        N  0.97499941  0.71876506  0.76002441     0.65300
H257        H  0.90165345  0.72884882  0.81822731     0.18200
N258        N  0.94705130  0.85756065  0.85344715     0.75800
H259        H  0.02114430  0.84659283  0.79507897     0.09700
C260        C  0.03152776  0.80572273  0.70871889     0.03400
C261        C  0.07024460  0.80391981  0.67743239    -0.05300
C262        C  0.12271956  0.78387302  0.68059283    -0.23700
C263        C  0.13663226  0.76693195  0.71711086     0.12700
C264        C  0.09778884  0.76909768  0.74842122    -0.12800
N265        N  0.97825368  0.82544772  0.70372149     0.64300
H266        H  0.05824988  0.81753976  0.65015770     0.12200
N267        N  0.19004880  0.74776371  0.72330826     0.61000
H268        H  0.10872641  0.75566225  0.77600776     0.08300
O269        O  0.89754520  0.86943575  0.86212925    -0.40500
O270        O  0.98911087  0.87964208  0.86082885    -0.39700
O271        O  0.02008566  0.69867267  0.76252723    -0.39700
O272        O  0.93303881  0.70504014  0.74112373    -0.37400
O273        O  0.22566062  0.76309917  0.74667983    -0.38300
O274        O  0.19608345  0.71223922  0.71279522    -0.34400
O275        O  0.97616613  0.86253862  0.70509845    -0.35800
O276        O  0.93414761  0.80599315  0.69488070    -0.40100
C277        C  0.94686300  0.79903316  0.21361645    -0.13800
C278        C  0.94158990  0.76994231  0.24188154     0.16600
C279        C  0.89561765  0.74309040  0.23939055     0.02800
C280        C  0.85636232  0.74608375  0.20831106    -0.12300
C281        C  0.86225932  0.77484662  0.17927429    -0.03400
C282        C  0.90781714  0.80189643  0.18281604     0.02100
C283        C  0.98252753  0.77032677  0.27507310     0.08900
N284        N  0.88924662  0.71197020  0.26716189     0.65300
H285        H  0.82227472  0.72468106  0.20603806     0.18200
N286        N  0.91597350  0.83222945  0.15505240     0.75800
H287        H  0.98135833  0.82018759  0.21581769     0.09700
C288        C  0.04161939  0.76458866  0.26931632     0.03400
C289        C  0.07904306  0.76864001  0.30131798    -0.05300
C290        C  0.05906988  0.77844288  0.33914354    -0.23700
C291        C  0.99964711  0.78509242  0.34429331     0.12700
C292        C  0.96237202  0.78036550  0.31247388    -0.12800
N293        N  0.06413327  0.75402653  0.23142891     0.64300
H294        H  0.12408249  0.76333775  0.29658450     0.12200
N295        N  0.97612811  0.79765972  0.38115852     0.61000
H296        H  0.91725682  0.78596784  0.31669580     0.08300
O297        O  0.96046087  0.83222555  0.13436612    -0.40500
O298        O  0.88230116  0.86118651  0.15433533    -0.39700
O299        O  0.84028987  0.69902236  0.27531760    -0.39700
O300        O  0.93249323  0.69474229  0.28075111    -0.37400
O301        O  0.98767864  0.83157532  0.39454543    -0.38300
O302        O  0.93520491  0.77879332  0.39579474    -0.34400
O303        O  0.11154024  0.76758743  0.22050858    -0.35800
O304        O  0.03906727  0.72877624  0.21005551    -0.40100
C305        C  0.54189890  0.68537897  0.77810929    -0.13800
C306        C  0.55050042  0.71106198  0.74705419     0.16600
C307        C  0.59843545  0.73588067  0.74740078     0.02800
C308        C  0.63609594  0.73565210  0.77927320    -0.12300
C309        C  0.62699471  0.71079286  0.81130296    -0.03400
C310        C  0.57990030  0.68455416  0.80981602     0.02100
C311        C  0.50844743  0.71229268  0.71474695     0.08900
N312        N  0.60810427  0.76255039  0.71617361     0.65300
H313        H  0.67170173  0.75594662  0.77933241     0.18200
N314        N  0.56960826  0.65702719  0.84023577     0.75800
H315        H  0.50545417  0.66577525  0.77766245     0.09700
C316        C  0.51825395  0.69293611  0.67853420     0.03400
C317        C  0.47870752  0.69739237  0.64804068    -0.05300
C318        C  0.42919605  0.72055191  0.65272956    -0.23700
C319        C  0.42026695  0.74044998  0.68903297     0.12700
C320        C  0.45953795  0.73552074  0.71967960    -0.12800
N321        N  0.56765164  0.66852589  0.67230443     0.64300
H322        H  0.48620335  0.68173539  0.62063288     0.12200
N323        N  0.37365528  0.76729365  0.69482274     0.61000
H324        H  0.45306627  0.75120235  0.74722452     0.08300
O325        O  0.59650947  0.62486354  0.84044738    -0.40500
O326        O  0.52874378  0.66250549  0.86373078    -0.39700
O327        O  0.58358953  0.79560551  0.71638857    -0.39700
O328        O  0.64507213  0.75463778  0.69038779    -0.37400
O329        O  0.34784391  0.76842801  0.72725584    -0.38300
O330        O  0.36546377  0.79458279  0.67080047    -0.34400
O331        O  0.58433214  0.64547125  0.69857927    -0.35800
O332        O  0.59151809  0.66717863  0.63916485    -0.40100
C333        C  0.53403119  0.69884102  0.21932372    -0.13800
C334        C  0.47754078  0.71065238  0.21222415     0.16600
C335        C  0.46218034  0.72261725  0.17417882     0.02800
C336        C  0.50319147  0.72191610  0.14418462    -0.12300
C337        C  0.55950917  0.70961386  0.15109693    -0.03400
C338        C  0.57488411  0.69807388  0.18920540     0.02100
C339        C  0.43629136  0.71255978  0.24543767     0.08900
N340        N  0.40520793  0.73528873  0.16544483     0.65300
H341        H  0.49091343  0.73112521  0.11512539     0.18200
N342        N  0.63115450  0.68421101  0.19745951     0.75800
H343        H  0.54638163  0.68996911  0.24847747     0.09700
C344        C  0.42178199  0.67899774  0.26735736     0.03400
C345        C  0.38682172  0.68348561  0.30067478    -0.05300
C346        C  0.36458635  0.72034948  0.31205086    -0.23700
C347        C  0.37854916  0.75373591  0.28968451     0.12700
C348        C  0.41383538  0.74932197  0.25665881    -0.12800
N349        N  0.44072433  0.64023401  0.25570646     0.64300
H350        H  0.37558555  0.65776346  0.31734359     0.12200
N351        N  0.36036321  0.79259661  0.30126797     0.61000
H352        H  0.42578716  0.77515647  0.24037832     0.08300
O353        O  0.64848431  0.65231519  0.18221014    -0.40500
O354        O  0.66140615  0.70170226  0.22287517    -0.39700
O355        O  0.39715518  0.76458784  0.14385876    -0.39700
O356        O  0.36285283  0.71564383  0.17685851    -0.37400
O357        O  0.36621728  0.80427035  0.33634150    -0.38300
O358        O  0.34675486  0.81719315  0.27556249    -0.34400
O359        O  0.44762924  0.61400565  0.28105250    -0.35800
O360        O  0.44450586  0.63076083  0.21988185    -0.40100
C361        C  0.95230435  0.24025113  0.73104359    -0.13800
C362        C  0.99930777  0.21472674  0.72973962     0.16600
C363        C  0.00665262  0.18921649  0.69709938     0.02800
C364        C  0.96734242  0.19040182  0.66618785    -0.12300
C365        C  0.92127956  0.21695443  0.66658698    -0.03400
C366        C  0.91360184  0.24197354  0.69973392     0.02100
C367        C  0.04064627  0.21539111  0.76256348     0.08900
N368        N  0.05453765  0.16288255  0.69427774     0.65300
H369        H  0.97375956  0.17099239  0.64109423     0.18200
N370        N  0.86872561  0.27058445  0.70138715     0.75800
H371        H  0.94672511  0.25986644  0.75610375     0.09700
C372        C  0.07648440  0.24812317  0.76971797     0.03400
C373        C  0.11522783  0.24711711  0.80100524    -0.05300
C374        C  0.11962284  0.21414418  0.82520844    -0.23700
C375        C  0.08363370  0.18139786  0.81778839     0.12700
C376        C  0.04435298  0.18258290  0.78680746    -0.12800
N377        N  0.07466115  0.28230158  0.74540928     0.64300
H378        H  0.14218369  0.27249836  0.80647430     0.12200
N379        N  0.08726361  0.14639723  0.84057569     0.61000
H380        H  0.01707808  0.15739162  0.78111501     0.08300
O381        O  0.86661140  0.29740790  0.67627562    -0.40500
O382        O  0.83674720  0.27270923  0.73107554    -0.39700
O383        O  0.04845754  0.12905345  0.67903317    -0.39700
O384        O  0.10400085  0.17464928  0.70319183    -0.37400
O385        O  0.04241005  0.13054271  0.85328324    -0.38300
O386        O  0.13416875  0.12843576  0.84349458    -0.34400
O387        O  0.08322149  0.31606695  0.76022184    -0.35800
O388        O  0.07014347  0.27866523  0.70867383    -0.40100
C389        C  0.96883689  0.19013439  0.29032996    -0.13800
C390        C  0.97143053  0.22020323  0.26284141     0.16600
C391        C  0.93312095  0.25225329  0.26587533     0.02800
C392        C  0.89397061  0.25365276  0.29706119    -0.12300
C393        C  0.89132713  0.22359441  0.32490180    -0.03400
C394        C  0.92917955  0.19118279  0.32099170     0.02100
C395        C  0.01454238  0.21699427  0.23121282     0.08900
N396        N  0.93313218  0.28336848  0.23772826     0.65300
H397        H  0.86532351  0.27857007  0.29956477     0.18200
N398        N  0.92751061  0.15868677  0.34725316     0.75800
H399        H  0.99775739  0.16533907  0.28768555     0.09700
C400        C  0.06120315  0.24320938  0.22851526     0.03400
C401        C  0.09890298  0.23939802  0.19662531    -0.05300
C402        C  0.09124027  0.21006657  0.16760118    -0.23700
C403        C  0.04529419  0.18338514  0.17113688     0.12700
C404        C  0.00751160  0.18729455  0.20269762    -0.12800
N405        N  0.07058601  0.27389348  0.25738149     0.64300
H406        H  0.13392492  0.25997416  0.19406381     0.12200
N407        N  0.03663351  0.15193165  0.14324259     0.61000
H408        H  0.97208204  0.16698405  0.20498914     0.08300
O409        O  0.97303463  0.14638765  0.36256874    -0.40500
O410        O  0.88256119  0.13853691  0.35025210    -0.39700
O411        O  0.94245450  0.27601667  0.20193034    -0.39700
O412        O  0.91874795  0.31782102  0.24799349    -0.37400
O413        O  0.07659936  0.12818865  0.13539861    -0.38300
O414        O  0.98749696  0.14540216  0.12950899    -0.34400
O415        O  0.05987373  0.26823679  0.29308778    -0.35800
O416        O  0.09381690  0.30579993  0.24770457    -0.40100
C417        C  0.45673371  0.25507089  0.77619674    -0.13800
C418        C  0.49865752  0.28455773  0.77575075     0.16600
C419        C  0.49996942  0.31323139  0.80615314     0.02800
C420        C  0.46092965  0.31066127  0.83708439    -0.12300
C421        C  0.42083341  0.28000078  0.83866193    -0.03400
C422        C  0.41819999  0.25219429  0.80746803     0.02100
C423        C  0.54112240  0.28444317  0.74357031     0.08900
N424        N  0.54146762  0.34435764  0.80676469     0.65300
H425        H  0.46283494  0.33234915  0.86068536     0.18200
N426        N  0.37911691  0.21974157  0.80801796     0.75800
H427        H  0.45542676  0.23324068  0.75271225     0.09700
C428        C  0.57912921  0.25261718  0.73769767     0.03400
C429        C  0.61752805  0.25336103  0.70621217    -0.05300
C430        C  0.61933408  0.28516145  0.68034355    -0.23700
C431        C  0.58099442  0.31685607  0.68649334     0.12700
C432        C  0.54271101  0.31624527  0.71797400    -0.12800
N433        N  0.57993840  0.21967531  0.76362082     0.64300
H434        H  0.64635026  0.22873588  0.70203880     0.12200
N435        N  0.57992616  0.34984693  0.66109263     0.61000
H436        H  0.51333805  0.34058393  0.72217522     0.08300
O437        O  0.37798062  0.19716392  0.83701290    -0.40500
O438        O  0.35154913  0.21041245  0.77748657    -0.39700
O439        O  0.52753467  0.37842699  0.81854138    -0.39700
O440        O  0.59316204  0.33718015  0.79920383    -0.37400
O441        O  0.55249586  0.34747119  0.62932761    -0.38300
O442        O  0.59564806  0.38314416  0.67390829    -0.34400
O443        O  0.58955823  0.18545630  0.75026598    -0.35800
O444        O  0.57642143  0.22501329  0.80022779    -0.40100
C445        C  0.47978497  0.30333522  0.21088680    -0.13800
C446        C  0.47409083  0.27835578  0.24279794     0.16600
C447        C  0.42740709  0.25200709  0.24404588     0.02800
C448        C  0.38795738  0.25123271  0.21296687    -0.12300
C449        C  0.39400006  0.27592206  0.18051874    -0.03400
C450        C  0.44046417  0.30254334  0.18011756     0.02100
C451        C  0.51486497  0.28275179  0.27582730     0.08900
N452        N  0.41999524  0.22542589  0.27605163     0.65300
H453        H  0.35303973  0.23042277  0.21381537     0.18200
N454        N  0.44751353  0.33008761  0.14939886     0.75800
H455        H  0.51450022  0.32437585  0.21030218     0.09700
C456        C  0.57424281  0.27702921  0.27108784     0.03400
C457        C  0.61056666  0.28251849  0.30351031    -0.05300
C458        C  0.58924827  0.29376613  0.34056599    -0.23700
C459        C  0.52991735  0.30151148  0.34432100     0.12700
C460        C  0.49373589  0.29540868  0.31221466    -0.12800
N461        N  0.59821767  0.26472628  0.23408183     0.64300
H462        H  0.65568999  0.27668882  0.29990889     0.12200
N463        N  0.50526602  0.31575206  0.38025675     0.61000
H464        H  0.44852875  0.30127661  0.31552472     0.08300
O465        O  0.41717168  0.36072920  0.14911860    -0.40500
O466        O  0.48884603  0.32659665  0.12594501    -0.39700
O467        O  0.37054718  0.21529216  0.28645608    -0.39700
O468        O  0.46257990  0.20930478  0.29177713    -0.37400
O469        O  0.51754541  0.34984410  0.39283977    -0.38300
O470        O  0.46363398  0.29777051  0.39506741    -0.34400
O471        O  0.64710009  0.27651109  0.22416922    -0.35800
O472        O  0.57296729  0.23959986  0.21267147    -0.40100
C473        C  0.03337269  0.02546757  0.96838208    -0.13800
C474        C  0.99078268  0.02369372  0.99712878     0.16600
C475        C  0.98367257  0.05576433  0.02360484     0.02800
C476        C  0.02015268  0.08835404  0.02105272    -0.12300
C477        C  0.06286496  0.09019580  0.99224542    -0.03400
C478        C  0.06952353  0.05809834  0.96563652     0.02100
C479        C  0.95927228  0.98613932  0.00170590     0.08900
N480        N  0.93935027  0.05597468  0.05275303     0.65300
H481        H  0.01405422  0.11298313  0.04117142     0.18200
N482        N  0.11446174  0.05698059  0.93709314     0.75800
H483        H  0.04023562  0.00039865  0.94891831     0.09700
C484        C  0.93118452  0.96712134  0.96994586     0.03400
C485        C  0.90923477  0.92906127  0.97493520    -0.07700
C486        C  0.91341749  0.90983276  0.01100367    -0.23700
C487        C  0.94036884  0.92943422  0.04265765     0.12700
C488        C  0.96304346  0.96705298  0.03771188    -0.12800
N489        N  0.92376588  0.98610448  0.93288663     0.64300
H490        H  0.88736201  0.91471861  0.95065599     0.12200
N491        N  0.95049490  0.91009844  0.07875073     0.61000
H492        H  0.98621478  0.98077807  0.06178255     0.08300
O493        O  0.10442937  0.04444397  0.90275950    -0.40500
O494        O  0.16552309  0.06215131  0.94772405    -0.39700
O495        O  0.94705603  0.07320908  0.08536340    -0.39700
O496        O  0.89081957  0.04181694  0.04493007    -0.37400
O497        O  0.98788193  0.88345605  0.07961194    -0.38300
O498        O  0.93411966  0.92604627  0.11044547    -0.34400
O499        O  0.92091156  0.96585210  0.90160688    -0.35800
O500        O  0.91461464  0.02266852  0.93155847    -0.40100
C501        C  0.56025783  0.51652185  0.96195346    -0.13800
C502        C  0.50978698  0.51404317  0.98374674     0.16600
C503        C  0.48707056  0.54833509  0.00186366     0.02800
C504        C  0.51674373  0.58394103  0.99889238    -0.12300
C505        C  0.56755803  0.58638423  0.97739881    -0.03400
C506        C  0.58949789  0.55220055  0.95854944     0.02100
C507        C  0.48479828  0.47473048  0.99046002     0.08900
N508        N  0.43388388  0.54760823  0.02287353     0.65300
H509        H  0.49936002  0.61020566  0.01279674     0.18200
N510        N  0.64293224  0.55247241  0.93799094     0.75800
H511        H  0.57840728  0.49006015  0.94891856     0.09700
C512        C  0.46912318  0.44910077  0.95928961     0.03400
C513        C  0.44715205  0.41186385  0.96787101    -0.05300
C514        C  0.43882517  0.39983340  0.00677592    -0.23700
C515        C  0.45567047  0.42549347  0.03761648     0.12700
C516        C  0.47913702  0.46215524  0.02916263    -0.12800
N517        N  0.47340800  0.46067398  0.91902640     0.64300
H518        H  0.43415882  0.39284913  0.94370655     0.12200
N519        N  0.44920455  0.41519413  0.07772638     0.61000
H520        H  0.49241731  0.48130845  0.05318028     0.08300
O521        O  0.64845362  0.53291053  0.90646159    -0.40500
O522        O  0.68673430  0.56696344  0.95417998    -0.39700
O523        O  0.42592280  0.57051002  0.05185106    -0.39700
O524        O  0.39286176  0.52684378  0.01043169    -0.37400
O525        O  0.40248708  0.42246244  0.09468713    -0.38300
O526        O  0.49317445  0.40920380  0.09810837    -0.34400
O527        O  0.48473273  0.43537351  0.89266801    -0.35800
O528        O  0.46020067  0.49512726  0.90912455    -0.40100
loop_ 
_geom_bond_atom_site_label_1 
_geom_bond_atom_site_label_2 
_geom_bond_distance 
_geom_bond_site_symmetry_2 
_ccdc_geom_bond_type 
O1           Mg3   2.130   1_554  S
O1           Mg9   2.148       .  S
O1           C36   1.238       .  S
C2           O15   1.237       .  S
C2           O39   1.270       .  A
C2           H41   1.081       .  S
Mg3          O32   2.142       .  S
Mg3          O47   2.270       .  S
Mg3          O43   2.245       .  S
Mg3          O14   2.295       .  S
O4          Mg46   2.146       .  S
O4          Mg29   2.148       .  S
O4           C25   1.239       .  S
O5           C36   1.271       .  A
O5          Mg29   2.299       .  S
C6            O8   1.273       .  A
C6           O20   1.276       .  A
C6          C374   1.486       .  S
O7           C35   1.272   1_554  A
O7           Mg9   2.298       .  S
O8          Mg40   2.259       .  S
Mg9          O15   2.129       .  S
Mg9          O23   2.280       .  S
Mg9          O11   2.297       .  S
C10          O48   1.271       .  A
C10          O16   1.275   1_556  A
C10         C477   1.485       .  S
O11          C18   1.275       .  A
H12          C25   1.080       .  S
C13          O27   1.236       .  S
C13          O28   1.270       .  A
C13          H38   1.079       .  S
O14          C37   1.271       .  A
O15         Mg29   2.147       .  S
O16         Mg46   2.304       .  S
C17          O30   1.272       .  A
C17          O22   1.278       .  A
C17         C402   1.484       .  S
C18          O45   1.276       .  A
C18         C449   1.494       .  S
Mg19         O26   2.130       .  S
Mg19         O27   2.139       .  S
Mg19         O20   2.310       .  S
Mg19         O21   2.307   1_556  S
Mg19         O48   2.257       .  S
O21          C25   1.273       .  A
O22         Mg29   2.325       .  S
O23          C42   1.273       .  A
O24          C44   1.277       .  A
O24         Mg40   2.320       .  S
O26         Mg40   2.148       .  S
O26          C37   1.237       .  S
O27         Mg46   2.134   1_556  S
O28         Mg40   2.299       .  S
Mg29         O45   2.284       .  S
O30         Mg46   2.249       .  S
H31          C36   1.075       .  S
O32         Mg40   2.129       .  S
O32          C35   1.238       .  S
H33          C35   1.079       .  S
H34          C37   1.081       .  S
O39         Mg46   2.295       .  S
C42          O47   1.271   1_554  A
C42         C514   1.487       .  S
O43          C44   1.270       .  A
C44         C421   1.481       .  S
O49         Mg51   2.151   1_554  S
O49         Mg57   2.142       .  S
O49          C84   1.239       .  S
C50          O63   1.238       .  S
C50          O87   1.271       .  A
C50          H89   1.081       .  S
Mg51         O80   2.140       .  S
Mg51         O95   2.292       .  S
Mg51         O91   2.275       .  S
Mg51         O62   2.297       .  S
O52         Mg94   2.147       .  S
O52         Mg77   2.129       .  S
O52          C73   1.239       .  S
O53          C84   1.274       .  A
O53         Mg77   2.311       .  S
C54          O56   1.275       .  A
C54          O68   1.275       .  A
C54         C309   1.494       .  S
O55          C83   1.275       .  A
O55         Mg57   2.313   1_556  S
O56         Mg88   2.279       .  S
Mg57         O63   2.138       .  S
Mg57         O71   2.292       .  S
Mg57         O59   2.329       .  S
C58          O96   1.271       .  A
C58          O64   1.275   1_556  A
C58         C505   1.476       .  S
O59          C66   1.280       .  A
H60          C73   1.081       .  S
C61          O75   1.237       .  S
C61          O76   1.271       .  A
C61          H86   1.074       .  S
O62          C85   1.271       .  A
O63         Mg77   2.148       .  S
O64         Mg94   2.294       .  S
C65          O78   1.273       .  A
C65          O70   1.280       .  A
C65         C337   1.488       .  S
C66          O93   1.274       .  A
C66         C281   1.497       .  S
Mg67         O74   2.128       .  S
Mg67         O75   2.146       .  S
Mg67         O68   2.301       .  S
Mg67         O69   2.296       .  S
Mg67         O96   2.253       .  S
O69          C73   1.272   1_556  A
O70         Mg77   2.340       .  S
O71          C90   1.275       .  A
O72          C92   1.277       .  A
O72         Mg88   2.326       .  S
O74         Mg88   2.145       .  S
O74          C85   1.237       .  S
O75         Mg94   2.135   1_556  S
O76         Mg88   2.297       .  S
Mg77         O93   2.269       .  S
O78         Mg94   2.264       .  S
H79          C84   1.075       .  S
O80         Mg88   2.145       .  S
O80          C83   1.240       .  S
H81          C83   1.077       .  S
H82          C85   1.080       .  S
O87         Mg94   2.293       .  S
C90          O95   1.274   1_554  A
C90         C486   1.486       .  S
O91          C92   1.273       .  A
C92         C253   1.484       .  S
O97         Mg99   2.133       .  S
O97        Mg105   2.140       .  S
O97         C132   1.237       .  S
C98         O111   1.237       .  S
C98         O135   1.270       .  A
C98         H137   1.081       .  S
Mg99        O128   2.141       .  S
Mg99        O143   2.303       .  S
Mg99        O139   2.250       .  S
Mg99        O110   2.298       .  S
O100       Mg142   2.144       .  S
O100       Mg125   2.140       .  S
O100        C121   1.239       .  S
O101        C132   1.271       .  A
O101       Mg125   2.302       .  S
C102        O104   1.275       .  A
C102        O116   1.276       .  A
C102        C430   1.490       .  S
O103        C131   1.272       .  A
O103       Mg105   2.301       .  S
O104       Mg136   2.266       .  S
Mg105       O111   2.124       .  S
Mg105       O119   2.259       .  S
Mg105       O107   2.296       .  S
C106        O144   1.272       .  A
C106        O112   1.273       .  A
C106        C234   1.491       .  S
O107        C114   1.274       .  A
H108        C121   1.085       .  S
C109        O123   1.236       .  S
C109        O124   1.270       .  A
C109        H134   1.082       .  S
O110        C133   1.271       .  A
O111       Mg125   2.147       .  S
O112       Mg142   2.282       .  S
C113        O126   1.268       .  A
C113        O118   1.279       .  A
C113        C458   1.493       .  S
C114        O141   1.276       .  A
C114        C393   1.491       .  S
Mg115       O122   2.135       .  S
Mg115       O123   2.139       .  S
Mg115       O116   2.311       .  S
Mg115       O117   2.305       .  S
Mg115       O144   2.283       .  S
O117        C121   1.273       .  A
O118       Mg125   2.331       .  S
O119        C138   1.272       .  A
O120        C140   1.277       .  A
O120       Mg136   2.322       .  S
O122       Mg136   2.149       .  S
O122        C133   1.237       .  S
O123       Mg142   2.123       .  S
O124       Mg136   2.295       .  S
Mg125       O141   2.280       .  S
O126       Mg142   2.233       .  S
H127        C132   1.082       .  S
O128       Mg136   2.135       .  S
O128        C131   1.238       .  S
H129        C131   1.081       .  S
H130        C133   1.082       .  S
O135       Mg142   2.291       .  S
C138        O143   1.274       .  A
C138        C206   1.486       .  S
O139        C140   1.272       .  A
C140        C365   1.487       .  S
O145       Mg147   2.138       .  S
O145       Mg153   2.146       .  S
O145        C180   1.236       .  S
C146        O159   1.238       .  S
C146        O183   1.270       .  A
C146        H185   1.082       .  S
Mg147       O176   2.151       .  S
Mg147       O191   2.297       .  S
Mg147       O187   2.251       .  S
Mg147       O158   2.295       .  S
O148       Mg190   2.146       .  S
O148       Mg173   2.142       .  S
O148        C169   1.239       .  S
O149        C180   1.270       .  A
O149       Mg173   2.298       .  S
C150        O152   1.277       .  A
C150        O164   1.279       .  A
C150        C262   1.500       .  S
O151        C179   1.274       .  A
O151       Mg153   2.308       .  S
O152       Mg184   2.296       .  S
Mg153       O159   2.126       .  S
Mg153       O167   2.261       .  S
Mg153       O155   2.319       .  S
C154        O192   1.273       .  A
C154        O160   1.274       .  A
C154        C197   1.480       .  S
O155        C162   1.278       .  A
H156        C169   1.082       .  S
C157        O171   1.236       .  S
C157        O172   1.270       .  A
C157        H182   1.082       .  S
O158        C181   1.271       .  A
O159       Mg173   2.151       .  S
O160       Mg190   2.292       .  S
C161        O174   1.270       .  A
C161        O166   1.279       .  A
C161        C290   1.496       .  S
C162        O189   1.276       .  A
C162        C346   1.488       .  S
Mg163       O170   2.133       .  S
Mg163       O171   2.141       .  S
Mg163       O164   2.318       .  S
Mg163       O165   2.306       .  S
Mg163       O192   2.270       .  S
O165        C169   1.273       .  A
O166       Mg173   2.329       .  S
O167        C186   1.272       .  A
O168        C188   1.279       .  A
O168       Mg184   2.334       .  S
O170       Mg184   2.150       .  S
O170        C181   1.237       .  S
O171       Mg190   2.137       .  S
O172       Mg184   2.299       .  S
Mg173       O189   2.283       .  S
O174       Mg190   2.249       .  S
H175        C180   1.082       .  S
O176       Mg184   2.152       .  S
O176        C179   1.239       .  S
H177        C179   1.081       .  S
H178        C181   1.081       .  S
O183       Mg190   2.291       .  S
C186        O191   1.274       .  A
C186        C225   1.481       .  S
O187        C188   1.272       .  A
C188        C318   1.492       .  S
C193        H203   1.084   1_455  S
C193        C194   1.405       .  A
C193        C198   1.403       .  A
C194        C199   1.488   1_465  S
C194        C195   1.416       .  A
C195        C196   1.403       .  A
C195        N200   1.440       .  S
C196        H201   1.084       .  S
C196        C197   1.405       .  A
C197        C198   1.413       .  A
C198        N202   1.436       .  S
C199        C204   1.416       .  A
C199        C208   1.403       .  A
N200        O215   1.263   1_565  A
N200        O216   1.263       .  A
N202        O213   1.263   1_455  A
N202        O214   1.262       .  A
C204        C205   1.404       .  A
C204        N209   1.440   1_545  S
C205        H210   1.083       .  S
C205        C206   1.407       .  A
C206        C207   1.415       .  A
C207        C208   1.401       .  A
C207        N211   1.434       .  S
C208        H212   1.084   1_655  S
N209        O219   1.263       .  A
N209        O220   1.263   1_565  A
N211        O217   1.262       .  A
N211        O218   1.262   1_655  A
C221        H231   1.084       .  S
C221        C222   1.403       .  A
C221        C226   1.402       .  A
C222        C227   1.486       .  S
C222        C223   1.416       .  A
C223        C224   1.404       .  A
C223        N228   1.440       .  S
C224        H229   1.084       .  S
C224        C225   1.405       .  A
C225        C226   1.415       .  A
C226        N230   1.438       .  S
C227        C232   1.414       .  A
C227        C236   1.403       .  A
N228        O243   1.262       .  A
N228        O244   1.263       .  A
N230        O241   1.263       .  A
N230        O242   1.263       .  A
C232        C233   1.403       .  A
C232        N237   1.440       .  S
C233        H238   1.083       .  S
C233        C234   1.410       .  A
C234        C235   1.416       .  A
C235        C236   1.401       .  A
C235        N239   1.432       .  S
C236        H240   1.084       .  S
N237        O247   1.263       .  A
N237        O248   1.263       .  A
N239        O245   1.262       .  A
N239        O246   1.262       .  A
C249        H259   1.084   1_655  S
C249        C250   1.403   1_655  A
C249        C254   1.409       .  A
C250        C255   1.486       .  S
C250        C251   1.409   1_455  A
C251        C252   1.403       .  A
C251        N256   1.431       .  S
C252        H257   1.084       .  S
C252        C253   1.404       .  A
C253        C254   1.418       .  A
C254        N258   1.439       .  S
C255        C260   1.406       .  A
C255        C264   1.401       .  A
N256        O271   1.262   1_655  A
N256        O272   1.262       .  A
N258        O269   1.263       .  A
N258        O270   1.263       .  A
C260        C261   1.403       .  A
C260        N265   1.429   1_455  S
C261        H266   1.083       .  S
C261        C262   1.411       .  A
C262        C263   1.419       .  A
C263        C264   1.406       .  A
C263        N267   1.429       .  S
C264        H268   1.084       .  S
N265        O275   1.262       .  A
N265        O276   1.262       .  A
N267        O273   1.262       .  A
N267        O274   1.262       .  A
C277        H287   1.084       .  S
C277        C278   1.398       .  A
C277        C282   1.398       .  A
C278        C283   1.485       .  S
C278        C279   1.414       .  A
C279        C280   1.409       .  A
C279        N284   1.440       .  S
C280        H285   1.083       .  S
C280        C281   1.410       .  A
C281        C282   1.414       .  A
C282        N286   1.425       .  S
C283        C288   1.413   1_655  A
C283        C292   1.399       .  A
N284        O299   1.263       .  A
N284        O300   1.263       .  A
N286        O297   1.260       .  A
N286        O298   1.262       .  A
C288        C289   1.406       .  A
C288        N293   1.437       .  S
C289        H294   1.083       .  S
C289        C290   1.409       .  A
C290        C291   1.422   1_455  A
C291        C292   1.401       .  A
C291        N295   1.433       .  S
C292        H296   1.084       .  S
N293        O303   1.263       .  A
N293        O304   1.263       .  A
N295        O301   1.263       .  A
N295        O302   1.262       .  A
C305        H315   1.084       .  S
C305        C306   1.399       .  A
C305        C310   1.402       .  A
C306        C311   1.480       .  S
C306        C307   1.406       .  A
C307        C308   1.401       .  A
C307        N312   1.429       .  S
C308        H313   1.083       .  S
C308        C309   1.409       .  A
C309        C310   1.420       .  A
C310        N314   1.430       .  S
C311        C316   1.410       .  A
C311        C320   1.401       .  A
N312        O327   1.262       .  A
N312        O328   1.262       .  A
N314        O325   1.262       .  A
N314        O326   1.262       .  A
C316        C317   1.404       .  A
C316        N321   1.438       .  S
C317        H322   1.083       .  S
C317        C318   1.410       .  A
C318        C319   1.418       .  A
C319        C320   1.405       .  A
C319        N323   1.435       .  S
C320        H324   1.084       .  S
N321        O331   1.262       .  A
N321        O332   1.263       .  A
N323        O329   1.262       .  A
N323        O330   1.263       .  A
C333        H343   1.084       .  S
C333        C334   1.406       .  A
C333        C338   1.406       .  A
C334        C339   1.491       .  S
C334        C335   1.414       .  A
C335        C336   1.405       .  A
C335        N340   1.436       .  S
C336        H341   1.084       .  S
C336        C337   1.406       .  A
C337        C338   1.411       .  A
C338        N342   1.430       .  S
C339        C344   1.416       .  A
C339        C348   1.403       .  A
N340        O355   1.263       .  A
N340        O356   1.262       .  A
N342        O353   1.262       .  A
N342        O354   1.262       .  A
C344        C345   1.409       .  A
C344        N349   1.440       .  S
C345        H350   1.084       .  S
C345        C346   1.406       .  A
C346        C347   1.417       .  A
C347        C348   1.405       .  A
C347        N351   1.437       .  S
C348        H352   1.084       .  S
N349        O359   1.263       .  A
N349        O360   1.263       .  A
N351        O357   1.263       .  A
N351        O358   1.263       .  A
C361        H371   1.084       .  S
C361        C362   1.403       .  A
C361        C366   1.404       .  A
C362        C367   1.481   1_655  S
C362        C363   1.411   1_655  A
C363        C364   1.402   1_455  A
C363        N368   1.438       .  S
C364        H369   1.083       .  S
C364        C365   1.407       .  A
C365        C366   1.416       .  A
C366        N370   1.433       .  S
C367        C372   1.413       .  A
C367        C376   1.402       .  A
N368        O383   1.262       .  A
N368        O384   1.263       .  A
N370        O381   1.262       .  A
N370        O382   1.262       .  A
C372        C373   1.403       .  A
C372        N377   1.439       .  S
C373        H378   1.083       .  S
C373        C374   1.407       .  A
C374        C375   1.417       .  A
C375        C376   1.403       .  A
C375        N379   1.434       .  S
C376        H380   1.084       .  S
N377        O387   1.263       .  A
N377        O388   1.262       .  A
N379        O385   1.262       .  A
N379        O386   1.262       .  A
C389        H399   1.084       .  S
C389        C390   1.400       .  A
C389        C394   1.401       .  A
C390        C395   1.482   1_655  S
C390        C391   1.414       .  A
C391        C392   1.406       .  A
C391        N396   1.440       .  S
C392        H397   1.083       .  S
C392        C393   1.408       .  A
C393        C394   1.419       .  A
C394        N398   1.434       .  S
C395        C400   1.415       .  A
C395        C404   1.401       .  A
N396        O411   1.263       .  A
N396        O412   1.263       .  A
N398        O409   1.262       .  A
N398        O410   1.262       .  A
C400        C401   1.407       .  A
C400        N405   1.440       .  S
C401        H406   1.083       .  S
C401        C402   1.406       .  A
C402        C403   1.415       .  A
C403        C404   1.400       .  A
C403        N407   1.435       .  S
C404        H408   1.084   1_455  S
N405        O415   1.262       .  A
N405        O416   1.263       .  A
N407        O413   1.263       .  A
N407        O414   1.262   1_455  A
C417        H427   1.084       .  S
C417        C418   1.405       .  A
C417        C422   1.404       .  A
C418        C423   1.483       .  S
C418        C419   1.412       .  A
C419        C420   1.402       .  A
C419        N424   1.438       .  S
C420        H425   1.084       .  S
C420        C421   1.406       .  A
C421        C422   1.414       .  A
C422        N426   1.435       .  S
C423        C428   1.413       .  A
C423        C432   1.401       .  A
N424        O439   1.263       .  A
N424        O440   1.262       .  A
N426        O437   1.263       .  A
N426        O438   1.262       .  A
C428        C429   1.403       .  A
C428        N433   1.439       .  S
C429        H434   1.083       .  S
C429        C430   1.407       .  A
C430        C431   1.416       .  A
C431        C432   1.401       .  A
C431        N435   1.429       .  S
C432        H436   1.084       .  S
N433        O443   1.263       .  A
N433        O444   1.263       .  A
N435        O441   1.262       .  A
N435        O442   1.262       .  A
C445        H455   1.084       .  S
C445        C446   1.398       .  A
C445        C450   1.397       .  A
C446        C451   1.484       .  S
C446        C447   1.416       .  A
C447        C448   1.407       .  A
C447        N452   1.440       .  S
C448        H453   1.083       .  S
C448        C449   1.408       .  A
C449        C450   1.417       .  A
C450        N454   1.427       .  S
C451        C456   1.415       .  A
C451        C460   1.399       .  A
N452        O467   1.263       .  A
N452        O468   1.263       .  A
N454        O465   1.261       .  A
N454        O466   1.262       .  A
C456        C457   1.406       .  A
C456        N461   1.439       .  S
C457        H462   1.083       .  S
C457        C458   1.408       .  A
C458        C459   1.421       .  A
C459        C460   1.399       .  A
C459        N463   1.433       .  S
C460        H464   1.084       .  S
N461        O471   1.263       .  A
N461        O472   1.262       .  A
N463        O469   1.263       .  A
N463        O470   1.262       .  A
C473        H483   1.084       .  S
C473        C474   1.403   1_455  A
C473        C478   1.401       .  A
C474        C479   1.486   1_546  S
C474        C475   1.415   1_556  A
C475        C476   1.404   1_655  A
C475        N480   1.439       .  S
C476        H481   1.084       .  S
C476        C477   1.406   1_554  A
C477        C478   1.417       .  A
C478        N482   1.436       .  S
C479        C484   1.416   1_554  A
C479        C488   1.402       .  A
N480        O495   1.262       .  A
N480        O496   1.263       .  A
N482        O493   1.263       .  A
N482        O494   1.263       .  A
C484        C485   1.405       .  A
C484        N489   1.440       .  S
C485        H490   1.084       .  S
C485        C486   1.407   1_556  A
C486        C487   1.410       .  A
C487        C488   1.398       .  A
C487        N491   1.426       .  S
C488        H492   1.084       .  S
N489        O499   1.263       .  A
N489        O500   1.263   1_565  A
N491        O497   1.261       .  A
N491        O498   1.262       .  A
C501        H511   1.084       .  S
C501        C502   1.402       .  A
C501        C506   1.400       .  A
C502        C507   1.481       .  S
C502        C503   1.415   1_556  A
C503        C504   1.401   1_554  A
C503        N508   1.440       .  S
C504        H509   1.084   1_556  S
C504        C505   1.403       .  A
C505        C506   1.416       .  A
C506        N510   1.437       .  S
C507        C512   1.413       .  A
C507        C516   1.402   1_556  A
N508        O523   1.263       .  A
N508        O524   1.263       .  A
N510        O521   1.263       .  A
N510        O522   1.263       .  A
C512        C513   1.402       .  A
C512        N517   1.439       .  S
C513        H518   1.083       .  S
C513        C514   1.410   1_556  A
C514        C515   1.412       .  A
C515        C516   1.397       .  A
C515        N519   1.427       .  S
C516        H520   1.084       .  S
N517        O527   1.263       .  A
N517        O528   1.263       .  A
N519        O525   1.262       .  A
N519        O526   1.262       .  A
