geometry optimzed in LAMMPS
_audit_creation_date              2020-12-01 
_audit_creation_method            'lammps2cif' 
_symmetry_space_group_name_H-M    'P1' 
_symmetry_Int_Tables_number       1 
_symmetry_cell_setting            triclinic 
loop_ 
_symmetry_equiv_pos_as_xyz 
  x,y,z 
_cell_length_a                    42.83101772 
_cell_length_b                    43.91020712094628 
_cell_length_c                    39.93580484059435 
_cell_angle_alpha                 106.52557580453244 
_cell_angle_beta                  90.14411032967153 
_cell_angle_gamma                 89.88681946565008 
loop_ 
_atom_site_label 
_atom_site_type_symbol 
_atom_site_fract_x 
_atom_site_fract_y 
_atom_site_fract_z 
_atom_site_charge 
O1          O  0.05159752  0.05254936  0.46221410    -0.81700
O2          O  0.10824862  0.18782422  0.48723866    -0.66400
O3          O  0.09502424  0.10273753  0.48932693    -1.13000
C4          C  0.02753038  0.14534997  0.08110716     1.05200
O5          O  0.10947603  0.20812869  0.04544989    -0.79600
O6          O  0.10897634  0.16279127  0.07892638    -0.67200
Ni7        Ni  0.08963778  0.06867557  0.44739701     1.34900
C8          C  0.10842097  0.13376924  0.07820516     0.83900
O9          O  0.13253367  0.13312021  0.45167801    -0.80200
O10         O  0.12698169  0.08050251  0.42786626    -0.90400
C11         C  0.11736730  0.20833935  0.01472824     0.83500
O12         O  0.06491861  0.09148810  0.42309014    -0.68600
O13         O  0.04597309  0.16917456  0.08902657    -0.87900
C14         C  0.05809935  0.12060622  0.42834448     0.84300
C15         C  0.13990036  0.10699410  0.42962014     1.05900
H16         H  0.05133820  0.16280257  0.01120981     0.37700
O17         O  0.06940147  0.15535289  0.02113205    -1.10600
O18         O  0.08979946  0.11343495  0.05916140    -0.67200
Ni19       Ni  0.06137772  0.11282646  0.02116527     1.26300
O20         O  0.07017942  0.14290288  0.45227889    -0.67500
O21         O  0.02771920  0.12436457  0.05205276    -0.79800
C22         C  0.04319412  0.05099556  0.49217074     0.83700
O23         O  0.05260368  0.07001692  0.01932411    -0.66900
Ni24       Ni  0.07737844  0.18665049  0.06457629     1.27400
Ni25       Ni  0.10150100  0.14498193  0.48694828     1.26100
H26         H  0.11298813  0.09699187  0.50092715     0.38200
O27         O  0.21752371  0.29632246  0.46134835    -0.81700
O28         O  0.28368285  0.43001156  0.47976564    -0.66400
O29         O  0.26051412  0.34725017  0.48363312    -1.13000
C30         C  0.20079685  0.40285960  0.08051259     1.05200
O31         O  0.29022079  0.44967099  0.03638973    -0.79600
O32         O  0.28553598  0.40229675  0.06749587    -0.67200
Ni33       Ni  0.25084233  0.31489249  0.44084908     1.34900
C34         C  0.28015208  0.37387954  0.06765264     0.83900
O35         O  0.30332857  0.37353256  0.44650076    -0.80200
O36         O  0.28324027  0.32799274  0.41376901    -0.90400
C37         C  0.29542969  0.44982821  0.00508542     0.83500
O38         O  0.22103555  0.33990078  0.42529521    -0.68600
O39         O  0.22460757  0.42098137  0.08626293    -0.87900
C40         C  0.22205499  0.36896990  0.42602666     0.84300
C41         C  0.30249659  0.35093058  0.41874512     1.05900
H42         H  0.22521938  0.41438094  0.00675453     0.37700
O43         O  0.24168931  0.40393318  0.01565615    -1.10600
O44         O  0.25596924  0.35878640  0.05362481    -0.67200
Ni45       Ni  0.22750547  0.36339938  0.01767890     1.26300
O46         O  0.24098184  0.38909289  0.44527444    -0.67500
O47         O  0.19643411  0.38152551  0.05177383    -0.79800
C48         C  0.20677876  0.29945794  0.49184751     0.83700
O49         O  0.21251426  0.32287569  0.01813960    -0.66900
Ni50       Ni  0.25695533  0.43252704  0.05842336     1.27400
Ni51       Ni  0.27224134  0.38848497  0.48076731     1.26100
H52         H  0.27773657  0.33907123  0.49417146     0.38200
O53         O  0.22075704  0.20441088  0.29250928    -0.81700
O54         O  0.27586496  0.06610128  0.27000483    -0.66400
O55         O  0.26187747  0.15162940  0.26968912    -1.13000
C56         C  0.19350923  0.10529026  0.17579530     1.05200
O57         O  0.27770613  0.04624398  0.21242451    -0.79600
O58         O  0.27038612  0.08762976  0.17392423    -0.67200
Ni59       Ni  0.25347437  0.18414632  0.31222109     1.34900
C60         C  0.27528404  0.11697559  0.17810881     0.83900
O61         O  0.30096522  0.12045686  0.30369123    -0.80200
O62         O  0.28543278  0.16825653  0.33715621    -0.90400
C63         C  0.28531920  0.04536563  0.24297503     0.83500
O64         O  0.22251145  0.16107648  0.32857463    -0.68600
O65         O  0.20778558  0.07907167  0.17211341    -0.87900
C66         C  0.22186436  0.13200485  0.32769959     0.84300
C67         C  0.30260655  0.14353758  0.33108284     1.05900
H68         H  0.21733308  0.09294358  0.24800805     0.37700
O69         O  0.23572023  0.09868076  0.23728936    -1.10600
O70         O  0.26138464  0.13896072  0.20065905    -0.67200
Ni71       Ni  0.23012422  0.14125259  0.23517066     1.26300
O72         O  0.23891242  0.11069341  0.30769130    -0.67500
O73         O  0.19900471  0.13040789  0.20016398    -0.79800
C74         C  0.21468441  0.20506951  0.26150813     0.83700
O75         O  0.22465842  0.18407214  0.23506807    -0.66900
Ni76       Ni  0.24235735  0.06505629  0.19490469     1.27400
Ni77       Ni  0.26850428  0.10906575  0.27078554     1.26100
H78         H  0.28043165  0.15829659  0.26001008     0.38200
O79         O  0.04709372  0.44673912  0.28755805    -0.81700
O80         O  0.11293050  0.31403125  0.26095869    -0.66400
O81         O  0.09271127  0.39872550  0.26178719    -1.13000
C82         C  0.03631425  0.34705771  0.16009871     1.05200
O83         O  0.12680429  0.30180305  0.20526293    -0.79600
O84         O  0.11965580  0.34912916  0.17419653    -0.67200
Ni85       Ni  0.08451632  0.43090390  0.30476874     1.34900
C86         C  0.11386191  0.37794502  0.17596813     0.83900
O87         O  0.13062312  0.36896339  0.30182745    -0.80200
O88         O  0.12146370  0.42034574  0.32744904    -0.90400
C89         C  0.12853261  0.29728851  0.23539004     0.83500
O90         O  0.05955647  0.40480952  0.32483734    -0.68600
O91         O  0.05976112  0.32828642  0.15451261    -0.87900
C92         C  0.05468369  0.37509068  0.31806069     0.84300
C93         C  0.13617452  0.39460320  0.32534733     1.05900
H94         H  0.05791130  0.33227178  0.23046798     0.37700
O95         O  0.07531910  0.34367311  0.22446058    -1.10600
O96         O  0.09047043  0.39289605  0.19215412    -0.67200
Ni97       Ni  0.06141358  0.38503588  0.22567723     1.26300
O98         O  0.06887769  0.35427925  0.29403196    -0.67500
O99         O  0.03189827  0.36872106  0.18880745    -0.79800
C100        C  0.03748998  0.44705676  0.25737974     0.83700
O101        O  0.04617104  0.42671476  0.22953420    -0.66900
Ni102      Ni  0.09273393  0.31725564  0.18219907     1.27400
Ni103      Ni  0.10282767  0.35659100  0.26311932     1.26100
H104        H  0.11062831  0.40633194  0.25194601     0.38200
C105        C  0.00440334  0.02795426  0.25905791    -0.02700
C106        C  0.30693853  0.02016868  0.24703154     0.07000
C107        C  0.29709045  0.98827640  0.23853482    -0.02800
C108        C  0.31783784  0.46432120  0.24207215    -0.02800
C109        C  0.01518689  0.47220010  0.25460081     0.07100
C110        C  0.02491060  0.50417020  0.26337408    -0.03000
Br111      Br  0.06692657  0.51522497  0.27986834    -0.01500
Br112      Br  0.01940344  0.07081734  0.26714888    -0.01600
Br113      Br  0.30386215  0.42083115  0.23071050    -0.01600
Br114      Br  0.25488193  0.97771677  0.22268380    -0.01500
C115        C  0.14036837  0.25090511  0.25828573    -0.02700
C116        C  0.15059709  0.27325652  0.24132516     0.07000
C117        C  0.18223240  0.27311464  0.23108250    -0.02800
C118        C  0.20348371  0.25144850  0.23867099    -0.02800
C119        C  0.19322374  0.22948176  0.25593631     0.07100
C120        C  0.16164091  0.22917942  0.26564210    -0.03000
Br121      Br  0.14718786  0.19787780  0.28762179    -0.01500
Br122      Br  0.09671204  0.24816807  0.26902057    -0.01600
Br123      Br  0.24702005  0.25258017  0.22665219    -0.01200
Br124      Br  0.19706445  0.30274285  0.20711266    -0.01500
C125        C  0.31698300  0.37819824  0.37439852    -0.02700
C126        C  0.32303867  0.35373531  0.39007667     0.07000
C127        C  0.01637198  0.33446610  0.38012790    -0.02800
C128        C  0.03770019  0.34077972  0.35596218    -0.02800
C129        C  0.03116223  0.36496614  0.33986738     0.07100
C130        C  0.33650364  0.38244219  0.34801149    -0.03000
Br131      Br  0.32411589  0.41202299  0.32257136    -0.01500
Br132      Br  0.28305415  0.40778719  0.39022542    -0.01600
Br133      Br  0.07704627  0.31841631  0.34786934    -0.01600
Br134      Br  0.02487308  0.30124989  0.40172583    -0.01500
C135        C  0.29314253  0.34428121  0.11166256    -0.02700
C136        C  0.30283033  0.35825858  0.08558778     0.07000
C137        C  0.00163629  0.35867574  0.07806281    -0.02800
C138        C  0.02360408  0.34941734  0.09954983    -0.02800
C139        C  0.01374753  0.34461743  0.13133505     0.07100
C140        C  0.31512901  0.33966403  0.13608135    -0.03000
Br141      Br  0.30196035  0.32474355  0.17478501    -0.01500
Br142      Br  0.25090119  0.32949210  0.11290797    -0.01600
Br143      Br  0.06618664  0.34087492  0.08396987    -0.01600
Br144      Br  0.01546273  0.37047529  0.03750686    -0.01500
C145        C  0.15405922  0.40446711  0.38807388    -0.02700
C146        C  0.16038986  0.39320842  0.35182329     0.07000
C147        C  0.18805449  0.37571577  0.34075752    -0.02800
C148        C  0.20750384  0.36717251  0.36501741    -0.02800
C149        C  0.20150348  0.37888455  0.40114478     0.07100
C150        C  0.17496670  0.39792659  0.41265606    -0.03000
Br151      Br  0.16569869  0.41212093  0.46192026    -0.01500
Br152      Br  0.11541085  0.42607028  0.40421014    -0.01600
Br153      Br  0.24118142  0.33743609  0.34805276    -0.01600
Br154      Br  0.20004371  0.36387919  0.29220992    -0.01500
C155        C  0.14598543  0.40844548  0.10413995    -0.02700
C156        C  0.17830805  0.40518138  0.10927742     0.07000
C157        C  0.18888037  0.40195569  0.14165119    -0.02800
C158        C  0.16742774  0.39488108  0.16494606    -0.02800
C159        C  0.13528617  0.39413822  0.15760699     0.07100
C160        C  0.12462158  0.40513312  0.12967827    -0.03000
Br161      Br  0.08162247  0.41758825  0.12761582    -0.01500
Br162      Br  0.13100643  0.41772840  0.06251917    -0.01600
Br163      Br  0.18171176  0.38724742  0.20766099    -0.01600
Br164      Br  0.23243766  0.40653609  0.15427901    -0.01500
C165        C  0.31941624  0.11489857  0.37295745    -0.02700
C166        C  0.32424963  0.13995162  0.35798638     0.07000
C167        C  0.01692402  0.16001980  0.36755523    -0.02800
C168        C  0.03926659  0.15383794  0.39062406    -0.02800
C169        C  0.03444306  0.12864241  0.40557792     0.07100
C170        C  0.34035679  0.11021920  0.39788297    -0.03000
Br171      Br  0.33003389  0.07972944  0.42280457    -0.01500
Br172      Br  0.28423308  0.08644627  0.35939118    -0.01600
Br173      Br  0.07720163  0.17858916  0.39945180    -0.01600
Br174      Br  0.02280259  0.19462951  0.34734814    -0.01500
C175        C  0.29088084  0.15038978  0.13943403    -0.02700
C176        C  0.29797464  0.12597592  0.15508151     0.07000
C177        C  0.99274008  0.10874154  0.14682790    -0.02800
C178        C  0.01280967  0.11476600  0.12193396    -0.02800
C179        C  0.00635938  0.13989279  0.10742019     0.07100
C180        C  0.31194068  0.15738927  0.11574227    -0.03000
Br181      Br  0.30143270  0.18849139  0.09172793    -0.01500
Br182      Br  0.25153565  0.17293019  0.14795654    -0.01600
Br183      Br  0.04796384  0.08674424  0.10637909    -0.01600
Br184      Br  0.00480790  0.07748136  0.17028960    -0.01500
C185        C  0.19071797  0.12628895  0.41383701    -0.02700
C186        C  0.16336217  0.10838639  0.40327319     0.07000
C187        C  0.15596231  0.09672058  0.36732350    -0.02800
C188        C  0.17547712  0.10382764  0.34229299    -0.02800
C189        C  0.20189134  0.12310729  0.35317096     0.07100
C190        C  0.20938416  0.13447977  0.38897818    -0.03000
Br191      Br  0.24456839  0.16243307  0.40450792    -0.01500
Br192      Br  0.20288972  0.13937510  0.46246208    -0.01600
Br193      Br  0.16434050  0.08985043  0.29346077    -0.01600
Br194      Br  0.11769494  0.07360135  0.35208563    -0.01500
C195        C  0.15726169  0.10761434  0.09018793    -0.02700
C196        C  0.12923943  0.12373894  0.10225683     0.07000
C197        C  0.12159709  0.13174329  0.13801055    -0.02800
C198        C  0.14117736  0.12225781  0.16134489    -0.02800
C199        C  0.17003702  0.10770902  0.14978819     0.07100
C200        C  0.17818655  0.10050785  0.11410947    -0.03000
Br201      Br  0.21912854  0.08409751  0.09831953    -0.01500
Br202      Br  0.16818296  0.09765358  0.04145259    -0.01600
Br203      Br  0.12826295  0.12891243  0.20920956    -0.01600
Br204      Br  0.08553050  0.15768417  0.15584909    -0.01500
C205        C  0.03284851  0.99388119  0.48593654    -0.02700
C206        C  0.02178165  0.02533748  0.49450458     0.07000
C207        C  0.32411035  0.03146727  0.00536778    -0.02800
C208        C  0.30444234  0.50675900  0.00852373    -0.02800
C209        C  0.31538127  0.47518463  0.99913451     0.07100
C210        C  0.01296001  0.46911016  0.48834681    -0.03000
Br211      Br  0.02851228  0.42614154  0.47656880    -0.01500
Br212      Br  0.07587237  0.98519336  0.47251232    -0.01600
Br213      Br  0.26209599  0.51585948  0.02481148    -0.01600
Br214      Br  0.30812208  0.07422007  0.01604403    -0.01500
C215        C  0.15290851  0.27688422  0.48596162    -0.02700
C216        C  0.18409256  0.27595908  0.49707323     0.07000
C217        C  0.19270382  0.25394524  0.01609513    -0.02800
C218        C  0.17056345  0.23267207  0.02269389    -0.02800
C219        C  0.13958579  0.23268922  0.01044349     0.07100
C220        C  0.13074446  0.25544959  0.49221431    -0.03000
Br221      Br  0.08783793  0.25768693  0.47833185    -0.01500
Br222      Br  0.14040927  0.30836691  0.46324481    -0.01600
Br223      Br  0.18299577  0.20282103  0.04764277    -0.01600
Br224      Br  0.23546280  0.25263668  0.03093155    -0.01500
O225        O  0.05197167  0.05198345  0.96169452    -0.81700
O226        O  0.10853057  0.18716794  0.98765922    -0.66400
O227        O  0.09522651  0.10210328  0.98950772    -1.13000
C228        C  0.02742856  0.14659637  0.58137660     1.05200
O229        O  0.10958012  0.20872448  0.54502194    -0.79600
O230        O  0.10883749  0.16396134  0.57923370    -0.67200
Ni231      Ni  0.09024208  0.06808236  0.94749915     1.34900
C232        C  0.10873075  0.13488923  0.57834447     0.83900
O233        O  0.13309944  0.13259944  0.95227528    -0.80200
O234        O  0.12784253  0.07992021  0.92857769    -0.90400
C235        C  0.11730836  0.20894398  0.51426074     0.83500
O236        O  0.06588843  0.09093772  0.92294658    -0.68600
O237        O  0.04569794  0.17056764  0.58896319    -0.87900
C238        C  0.05873532  0.11999938  0.92847002     0.84300
C239        C  0.14067460  0.10645160  0.93039181     1.05900
H240        H  0.05114164  0.16330577  0.51116277     0.37700
O241        O  0.06930808  0.15601260  0.52106167    -1.10600
O242        O  0.09034643  0.11434069  0.55916799    -0.67200
Ni243      Ni  0.06147090  0.11352101  0.52143301     1.26300
O244        O  0.07058213  0.14226541  0.95259582    -0.67500
O245        O  0.02799461  0.12510029  0.55268302    -0.79800
C246        C  0.04320660  0.05037763  0.99149625     0.83700
O247        O  0.05284934  0.07069538  0.51985066    -0.66900
Ni248      Ni  0.07731887  0.18760125  0.56433000     1.27400
Ni249      Ni  0.10180505  0.14435915  0.98730526     1.26100
H250        H  0.11303713  0.09635034  0.00130543     0.38200
O251        O  0.21740007  0.29562344  0.96191631    -0.81700
O252        O  0.28434405  0.42896914  0.97913672    -0.66400
O253        O  0.25972455  0.34687401  0.98364910    -1.13000
C254        C  0.20227328  0.40201703  0.58155491     1.05200
O255        O  0.29091389  0.44956669  0.53698093    -0.79600
O256        O  0.28695334  0.40143679  0.56715873    -0.67200
Ni257      Ni  0.24951927  0.31499064  0.94069370     1.34900
C258        C  0.28143856  0.37303354  0.56726072     0.83900
O259        O  0.30361460  0.37203366  0.94707679    -0.80200
O260        O  0.28071362  0.32892447  0.91284838    -0.90400
C261        C  0.29528946  0.45044666  0.50575928     0.83500
O262        O  0.21884851  0.34037364  0.92707894    -0.68600
O263        O  0.22622089  0.41996526  0.58731663    -0.87900
C264        C  0.22125810  0.36900949  0.92646875     0.84300
C265        C  0.30117888  0.35080462  0.91836847     1.05900
H266        H  0.22558083  0.41457039  0.50819401     0.37700
O267        O  0.24226679  0.40396019  0.51651474    -1.10600
O268        O  0.25708060  0.35816971  0.55352098    -0.67200
Ni269      Ni  0.22842678  0.36320068  0.51803653     1.26300
O270        O  0.24148471  0.38844302  0.94437460    -0.67500
O271        O  0.19764894  0.38092527  0.55265859    -0.79800
C272        C  0.20633424  0.29923653  0.99236636     0.83700
O273        O  0.21372403  0.32246192  0.51797572    -0.66900
Ni274      Ni  0.25811208  0.43199994  0.55926963     1.27400
Ni275      Ni  0.27213132  0.38780265  0.98057458     1.26100
H276        H  0.27666806  0.33836306  0.99427025     0.38200
O277        O  0.22088105  0.20389338  0.79391184    -0.81700
O278        O  0.27595390  0.06551997  0.76941881    -0.66400
O279        O  0.26214883  0.15132412  0.77023422    -1.13000
C280        C  0.19368617  0.10579326  0.67605057     1.05200
O281        O  0.27842975  0.04672239  0.71179067    -0.79600
O282        O  0.27037137  0.08840708  0.67368728    -0.67200
Ni283      Ni  0.25412604  0.18367367  0.81300555     1.34900
C284        C  0.27517815  0.11781877  0.67819573     0.83900
O285        O  0.30123135  0.11957192  0.80366766    -0.80200
O286        O  0.28657179  0.16769442  0.83719292    -0.90400
C287        C  0.28582059  0.04530291  0.74222436     0.83500
O288        O  0.22382128  0.16053523  0.83026771    -0.68600
O289        O  0.20786159  0.07947189  0.67220993    -0.87900
C290        C  0.22292198  0.13131478  0.82875436     0.84300
C291        C  0.30333767  0.14267695  0.83098905     1.05900
H292        H  0.21756144  0.09273451  0.74787197     0.37700
O293        O  0.23594292  0.09863534  0.73727271    -1.10600
O294        O  0.26146085  0.13962314  0.70114797    -0.67200
Ni295      Ni  0.23034075  0.14136770  0.73571782     1.26300
O296        O  0.23926350  0.10997499  0.80779086    -0.67500
O297        O  0.19923014  0.13080372  0.70060035    -0.79800
C298        C  0.21489435  0.20509049  0.76305828     0.83700
O299        O  0.22487130  0.18438511  0.73635960    -0.66900
Ni300      Ni  0.24272003  0.06540371  0.69461277     1.27400
Ni301      Ni  0.26871272  0.10862605  0.77080818     1.26100
H302        H  0.28070657  0.15798512  0.76055476     0.38200
O303        O  0.04718780  0.44670339  0.78692027    -0.81700
O304        O  0.11270189  0.31348229  0.76130492    -0.66400
O305        O  0.09263741  0.39826187  0.76191524    -1.13000
C306        C  0.03763553  0.34667469  0.65943148     1.05200
O307        O  0.12730569  0.30132712  0.70582899    -0.79600
O308        O  0.12110465  0.34930030  0.67565431    -0.67200
Ni309      Ni  0.08403723  0.43049131  0.80475715     1.34900
C310        C  0.11499626  0.37794850  0.67698990     0.83900
O311        O  0.13013327  0.36849434  0.80230007    -0.80200
O312        O  0.12035064  0.41974287  0.82815172    -0.90400
C313        C  0.12866235  0.29682511  0.73597811     0.83500
O314        O  0.05851992  0.40441658  0.82421715    -0.68600
O315        O  0.06147669  0.32842487  0.65399592    -0.87900
C316        C  0.05361329  0.37471554  0.81756742     0.84300
C317        C  0.13523259  0.39411315  0.82600731     1.05900
H318        H  0.05814581  0.33156856  0.72996756     0.37700
O319        O  0.07560007  0.34313571  0.72433474    -1.10600
O320        O  0.09107016  0.39250575  0.69229952    -0.67200
Ni321      Ni  0.06170671  0.38449842  0.72543071     1.26300
O322        O  0.06821146  0.35384153  0.79391948    -0.67500
O323        O  0.03262449  0.36802167  0.68823012    -0.79800
C324        C  0.03785495  0.44682936  0.75659552     0.83700
O325        O  0.04644559  0.42614658  0.72896391    -0.66900
Ni326      Ni  0.09381298  0.31712412  0.68228816     1.27400
Ni327      Ni  0.10262399  0.35609173  0.76337555     1.26100
H328        H  0.11068297  0.40587696  0.75230345     0.38200
C329        C  0.00527051  0.02772598  0.75714836    -0.02700
C330        C  0.30755652  0.02009198  0.74599939     0.07000
C331        C  0.29744371  0.98834564  0.73835844    -0.02800
C332        C  0.31820510  0.46432988  0.74168455    -0.02800
C333        C  0.01579302  0.47204541  0.75341408     0.07100
C334        C  0.02581126  0.50390040  0.76135385    -0.03000
Br335      Br  0.06817559  0.51471588  0.77665531    -0.01500
Br336      Br  0.02032822  0.07051266  0.76470335    -0.01600
Br337      Br  0.30399049  0.42096032  0.73104470    -0.01600
Br338      Br  0.25477708  0.97816003  0.72423196    -0.01500
C339        C  0.14032435  0.25003656  0.75828438    -0.02700
C340        C  0.15078061  0.27296328  0.74224947     0.07000
C341        C  0.18270635  0.27365908  0.73339955    -0.02800
C342        C  0.20400448  0.25235101  0.74163697    -0.02800
C343        C  0.19346830  0.22968834  0.75782096     0.07100
C344        C  0.16163449  0.22861802  0.76621350    -0.03000
Br345      Br  0.14702206  0.19690616  0.78749591    -0.01500
Br346      Br  0.09637999  0.24600676  0.76669019    -0.01600
Br347      Br  0.24795628  0.25502640  0.73224165    -0.01200
Br348      Br  0.19775498  0.30375684  0.71016734    -0.01500
C349        C  0.31644127  0.37940182  0.87537002    -0.02700
C350        C  0.32147459  0.35384310  0.88962941     0.07000
C351        C  0.01368883  0.33335009  0.87818588    -0.02800
C352        C  0.03508487  0.33941836  0.85395193    -0.02800
C353        C  0.02967871  0.36479776  0.83924896     0.07100
C354        C  0.33590039  0.38361831  0.84889565    -0.03000
Br355      Br  0.32446784  0.41510787  0.82551857    -0.01500
Br356      Br  0.28396823  0.41032364  0.89311826    -0.01600
Br357      Br  0.07306788  0.31484558  0.84408522    -0.01600
Br358      Br  0.02065971  0.29868235  0.89805467    -0.01500
C359        C  0.29441902  0.34368184  0.61134988    -0.02700
C360        C  0.30406769  0.35717945  0.58489588     0.07000
C361        C  0.00278270  0.35712721  0.57689230    -0.02800
C362        C  0.02488877  0.34831970  0.59855862    -0.02800
C363        C  0.01513675  0.34385028  0.63055191     0.07100
C364        C  0.31654735  0.33893355  0.63552073    -0.03000
Br365      Br  0.30359541  0.32400492  0.67430837    -0.01500
Br366      Br  0.25186470  0.33015808  0.61376355    -0.01600
Br367      Br  0.06756509  0.34033910  0.58313159    -0.01600
Br368      Br  0.01617961  0.36771004  0.53546903    -0.01500
C369        C  0.15180231  0.40212549  0.88866583    -0.02700
C370        C  0.15919779  0.39293920  0.85265378     0.07000
C371        C  0.18789376  0.37756729  0.84167785    -0.02800
C372        C  0.20759435  0.36907212  0.86573919    -0.02800
C373        C  0.20074783  0.37915321  0.90176935     0.07100
C374        C  0.17300622  0.39611363  0.91323772    -0.03000
Br375      Br  0.16281695  0.40824427  0.96227984    -0.01500
Br376      Br  0.11128622  0.41950474  0.90408804    -0.01600
Br377      Br  0.24223608  0.34085417  0.84836993    -0.01600
Br378      Br  0.20061815  0.36826071  0.79351046    -0.01500
C379        C  0.14741606  0.40759883  0.60489470    -0.02700
C380        C  0.17972054  0.40452655  0.61032750     0.07000
C381        C  0.19012956  0.40208467  0.64310481    -0.02800
C382        C  0.16853876  0.39544194  0.66655185    -0.02800
C383        C  0.13646263  0.39427450  0.65883303     0.07100
C384        C  0.12593620  0.40468884  0.63047671    -0.03000
Br385      Br  0.08293570  0.41693036  0.62788743    -0.01500
Br386      Br  0.13257539  0.41611514  0.56280581    -0.01600
Br387      Br  0.18245977  0.38909491  0.70999991    -0.01600
Br388      Br  0.23357868  0.40716323  0.65613535    -0.01500
C389        C  0.32079365  0.11315683  0.87182743    -0.02700
C390        C  0.32507923  0.13884645  0.85768798     0.07000
C391        C  0.01697290  0.15977655  0.86842455    -0.02800
C392        C  0.03914370  0.15390388  0.89182018    -0.02800
C393        C  0.03498699  0.12796929  0.90576900     0.07100
C394        C  0.34151248  0.10870598  0.89705368    -0.03000
Br395      Br  0.33149175  0.07750938  0.92118304    -0.01500
Br396      Br  0.28657812  0.08361557  0.85694534    -0.01600
Br397      Br  0.07588297  0.18035186  0.90259424    -0.01600
Br398      Br  0.02222277  0.19512137  0.84922118    -0.01500
C399        C  0.29017713  0.15097665  0.63899862    -0.02700
C400        C  0.29771657  0.12708705  0.65522043     0.07000
C401        C  0.99291026  0.11059552  0.64771491    -0.02800
C402        C  0.01297833  0.11666183  0.62286359    -0.02800
C403        C  0.00619899  0.14137644  0.60782825     0.07100
C404        C  0.31138259  0.15835169  0.61561768    -0.03000
Br405      Br  0.30068431  0.18933325  0.59153629    -0.01500
Br406      Br  0.25004573  0.17207099  0.64635512    -0.01600
Br407      Br  0.04854637  0.08908544  0.60796177    -0.01600
Br408      Br  0.00546553  0.08027825  0.67217819    -0.01500
C409        C  0.19218566  0.12439518  0.91472658    -0.02700
C410        C  0.16414947  0.10778078  0.90411488     0.07000
C411        C  0.15624767  0.09716813  0.86825688    -0.02800
C412        C  0.17597828  0.10405522  0.84331003    -0.02800
C413        C  0.20313819  0.12211397  0.85419757     0.07100
C414        C  0.21125158  0.13226039  0.88993820    -0.03000
Br415      Br  0.24786205  0.15803316  0.90547898    -0.01500
Br416      Br  0.20452948  0.13625754  0.96330069    -0.01600
Br417      Br  0.16430761  0.09135233  0.79461108    -0.01600
Br418      Br  0.11698605  0.07597810  0.85318167    -0.01500
C419        C  0.15789407  0.10908467  0.59043738    -0.02700
C420        C  0.12976458  0.12505204  0.60244269     0.07000
C421        C  0.12213444  0.13300670  0.63820065    -0.02800
C422        C  0.14153279  0.12320541  0.66148083    -0.02800
C423        C  0.17034462  0.10851866  0.64996988     0.07100
C424        C  0.17868124  0.10168593  0.61435483    -0.03000
Br425      Br  0.21969455  0.08536810  0.59870858    -0.01500
Br426      Br  0.16920882  0.09997298  0.54187336    -0.01600
Br427      Br  0.12841035  0.12963516  0.70922762    -0.01600
Br428      Br  0.08645034  0.15950953  0.65617557    -0.01500
C429        C  0.03235996  0.99307487  0.98327158    -0.02700
C430        C  0.02173118  0.02470191  0.99349414     0.07000
C431        C  0.32370035  0.03190349  0.50473331    -0.02800
C432        C  0.30386676  0.50714174  0.50748996    -0.02800
C433        C  0.31528350  0.47580956  0.49989658     0.07100
C434        C  0.01247890  0.46827807  0.98563008    -0.03000
Br435      Br  0.02749049  0.42509396  0.97148938    -0.01500
Br436      Br  0.07492813  0.98419758  0.96795353    -0.01600
Br437      Br  0.26070845  0.51574925  0.52067296    -0.01600
Br438      Br  0.30750502  0.07448905  0.51404739    -0.01500
C439        C  0.15280679  0.27609958  0.98610112    -0.02700
C440        C  0.18385792  0.27565279  0.99776556     0.07000
C441        C  0.19289454  0.25405085  0.51516069    -0.02800
C442        C  0.17065333  0.23296063  0.52192442    -0.02800
C443        C  0.13962444  0.23321472  0.50991050     0.07100
C444        C  0.13074586  0.25456642  0.99227459    -0.03000
Br445      Br  0.08807605  0.25601313  0.97728345    -0.01500
Br446      Br  0.14038285  0.30692830  0.96244779    -0.01600
Br447      Br  0.18293350  0.20333654  0.54721745    -0.01600
Br448      Br  0.23571875  0.25237174  0.52966805    -0.01500
O449        O  0.05159560  0.55255240  0.46221688    -0.81700
O450        O  0.10824615  0.68782597  0.48723806    -0.66400
O451        O  0.09502277  0.60273985  0.48932882    -1.13000
C452        C  0.02753042  0.64534903  0.08110720     1.05200
O453        O  0.10947332  0.70813012  0.04544980    -0.79600
O454        O  0.10897598  0.66279291  0.07892656    -0.67200
Ni455      Ni  0.08963672  0.56867679  0.44739994     1.34900
C456        C  0.10842173  0.63377089  0.07820559     0.83900
O457        O  0.13253055  0.63312098  0.45167750    -0.80200
O458        O  0.12698147  0.58050228  0.42786995    -0.90400
C459        C  0.11736561  0.70834021  0.01472834     0.83500
O460        O  0.06491916  0.59148821  0.42309033    -0.68600
O461        O  0.04597249  0.66917406  0.08902655    -0.87900
C462        C  0.05809802  0.62060585  0.42834436     0.84300
C463        C  0.13989864  0.60699409  0.42962168     1.05900
H464        H  0.05133818  0.66280148  0.01120882     0.37700
O465        O  0.06940152  0.65535251  0.02113173    -1.10600
O466        O  0.08980073  0.61343587  0.05916196    -0.67200
Ni467      Ni  0.06137871  0.61282610  0.02116562     1.26300
O468        O  0.07017625  0.64290328  0.45227949    -0.67500
O469        O  0.02771983  0.62436361  0.05205284    -0.79800
C470        C  0.04319301  0.55099836  0.49217362     0.83700
O471        O  0.05260559  0.57001663  0.01932510    -0.66900
Ni472      Ni  0.07737696  0.68665075  0.06457604     1.27400
Ni473      Ni  0.10149865  0.64498374  0.48694860     1.26100
H474        H  0.11298677  0.59699502  0.50092921     0.38200
O475        O  0.21752289  0.79632233  0.46134567    -0.81700
O476        O  0.28368027  0.93001262  0.47976759    -0.66400
O477        O  0.26051376  0.84724988  0.48363220    -1.13000
C478        C  0.20079626  0.90285672  0.08051088     1.05200
O479        O  0.29021843  0.94966947  0.03638722    -0.79600
O480        O  0.28553506  0.90229629  0.06749460    -0.67200
Ni481      Ni  0.25084212  0.81489300  0.44084754     1.34900
C482        C  0.28015231  0.87387878  0.06765088     0.83900
O483        O  0.30332781  0.87353448  0.44650173    -0.80200
O484        O  0.28324067  0.82799429  0.41376900    -0.90400
C485        C  0.29542668  0.94982706  0.00508294     0.83500
O486        O  0.22103575  0.83990165  0.42529334    -0.68600
O487        O  0.22460625  0.92097944  0.08626105    -0.87900
C488        C  0.22205524  0.86897094  0.42602546     0.84300
C489        C  0.30249656  0.85093260  0.41874591     1.05900
H490        H  0.22521726  0.91437802  0.00675290     0.37700
O491        O  0.24168781  0.90393085  0.01565416    -1.10600
O492        O  0.25597029  0.85878462  0.05362232    -0.67200
Ni493      Ni  0.22750543  0.86339674  0.01767724     1.26300
O494        O  0.24098139  0.88909379  0.44527443    -0.67500
O495        O  0.19643433  0.88152186  0.05177260    -0.79800
C496        C  0.20677921  0.79945623  0.49184510     0.83700
O497        O  0.21251612  0.82287289  0.01813888    -0.66900
Ni498      Ni  0.25695354  0.93252538  0.05842118     1.27400
Ni499      Ni  0.27223996  0.88848543  0.48076788     1.26100
H500        H  0.27773630  0.83907092  0.49417019     0.38200
O501        O  0.22075296  0.70441250  0.29251113    -0.81700
O502        O  0.27586446  0.56610426  0.27000935    -0.66400
O503        O  0.26187538  0.65163222  0.26969304    -1.13000
C504        C  0.19350888  0.60529186  0.17579762     1.05200
O505        O  0.27770587  0.54624671  0.21242899    -0.79600
O506        O  0.27038454  0.58763147  0.17392699    -0.67200
Ni507      Ni  0.25346994  0.68414891  0.31222444     1.34900
C508        C  0.27528310  0.61697721  0.17811156     0.83900
O509        O  0.30096236  0.62046083  0.30369710    -0.80200
O510        O  0.28542782  0.66826020  0.33716110    -0.90400
C511        C  0.28531921  0.54536870  0.24297965     0.83500
O512        O  0.22250659  0.66107792  0.32857560    -0.68600
O513        O  0.20778428  0.57907286  0.17211690    -0.87900
C514        C  0.22186047  0.63200646  0.32770125     0.84300
C515        C  0.30260248  0.64354194  0.33108849     1.05900
H516        H  0.21733200  0.59294618  0.24801103     0.37700
O517        O  0.23571944  0.59868314  0.23729263    -1.10600
O518        O  0.26138483  0.63896268  0.20066259    -0.67200
Ni519      Ni  0.23012342  0.64125479  0.23517331     1.26300
O520        O  0.23890998  0.61069554  0.30769440    -0.67500
O521        O  0.19900509  0.63040980  0.20016550    -0.79800
C522        C  0.21468188  0.70507122  0.26150971     0.83700
O523        O  0.22465752  0.68407423  0.23507025    -0.66900
Ni524      Ni  0.24235656  0.56505817  0.19490856     1.27400
Ni525      Ni  0.26850273  0.60906869  0.27078985     1.26100
H526        H  0.28042978  0.65829994  0.26001483     0.38200
O527        O  0.04709446  0.94674226  0.28755803    -0.81700
O528        O  0.11292962  0.81403296  0.26095816    -0.66400
O529        O  0.09271084  0.89872746  0.26178681    -1.13000
C530        C  0.03631094  0.84705809  0.16010014     1.05200
O531        O  0.12680338  0.80180547  0.20526254    -0.79600
O532        O  0.11965217  0.84912906  0.17419349    -0.67200
Ni533      Ni  0.08451655  0.93090595  0.30476855     1.34900
C534        C  0.11385943  0.87794537  0.17596618     0.83900
O535        O  0.13062347  0.86896499  0.30182625    -0.80200
O536        O  0.12146373  0.92034711  0.32744861    -0.90400
C537        C  0.12853168  0.79729039  0.23538934     0.83500
O538        O  0.05955611  0.90481189  0.32483727    -0.68600
O539        O  0.05975683  0.82828557  0.15451440    -0.87900
C540        C  0.05468308  0.87509307  0.31806085     0.84300
C541        C  0.13617489  0.89460465  0.32534632     1.05900
H542        H  0.05790966  0.83227427  0.23046920     0.37700
O543        O  0.07531771  0.84367519  0.22446102    -1.10600
O544        O  0.09046917  0.89289749  0.19215373    -0.67200
Ni545      Ni  0.06141253  0.88503804  0.22567736     1.26300
O546        O  0.06887731  0.85428164  0.29403230    -0.67500
O547        O  0.03189650  0.86872323  0.18880793    -0.79800
C548        C  0.03749052  0.94705991  0.25737978     0.83700
O549        O  0.04617065  0.92671726  0.22953422    -0.66900
Ni550      Ni  0.09273133  0.81725636  0.18219958     1.27400
Ni551      Ni  0.10282702  0.85659287  0.26311896     1.26100
H552        H  0.11062761  0.90633365  0.25194540     0.38200
C553        C  0.00440316  0.52795039  0.25905573    -0.02700
C554        C  0.30693935  0.52017215  0.24703635     0.07000
C555        C  0.29709289  0.48827919  0.23853700    -0.02800
C556        C  0.31783466  0.96431802  0.24207048    -0.02800
C557        C  0.01518762  0.97220358  0.25460103     0.07100
C558        C  0.02491114  0.00417381  0.26337507    -0.03000
Br559      Br  0.06692742  0.01522840  0.27986828    -0.01500
Br560      Br  0.01940348  0.57081330  0.26714603    -0.01600
Br561      Br  0.30385714  0.92082874  0.23071136    -0.01600
Br562      Br  0.25488538  0.47771783  0.22268338    -0.01500
C563        C  0.14036593  0.75090555  0.25828268    -0.02700
C564        C  0.15059572  0.77325787  0.24132394     0.07000
C565        C  0.18223146  0.77311642  0.23108303    -0.02800
C566        C  0.20348231  0.75145025  0.23867231    -0.02800
C567        C  0.19322145  0.72948320  0.25593678     0.07100
C568        C  0.16163813  0.72918039  0.26564065    -0.03000
Br569      Br  0.14718403  0.69787947  0.28762071    -0.01500
Br570      Br  0.09670858  0.74816610  0.26901162    -0.01600
Br571      Br  0.24701924  0.75258252  0.22665616    -0.01200
Br572      Br  0.19706446  0.80274472  0.20711383    -0.01500
C573        C  0.31698393  0.87820016  0.37439946    -0.02700
C574        C  0.32303933  0.85373759  0.39007819     0.07000
C575        C  0.01636804  0.83446215  0.38012123    -0.02800
C576        C  0.03769642  0.84077709  0.35595634    -0.02800
C577        C  0.03116124  0.86496841  0.33986756     0.07100
C578        C  0.33650443  0.88244302  0.34801178    -0.03000
Br579      Br  0.32411639  0.91202217  0.32256974    -0.01500
Br580      Br  0.28305567  0.90778994  0.39022627    -0.01600
Br581      Br  0.07703907  0.81840770  0.34785655    -0.01600
Br582      Br  0.02486507  0.80123879  0.40170994    -0.01500
C583        C  0.29314265  0.84427996  0.11166011    -0.02700
C584        C  0.30283075  0.85825849  0.08558639     0.07000
C585        C  0.00163431  0.85867508  0.07806357    -0.02800
C586        C  0.02360142  0.84941664  0.09955113    -0.02800
C587        C  0.01374425  0.84461743  0.13133638     0.07100
C588        C  0.31512877  0.83966215  0.13607886    -0.03000
Br589      Br  0.30195917  0.82474170  0.17478225    -0.01500
Br590      Br  0.25090116  0.82949091  0.11290479    -0.01600
Br591      Br  0.06618381  0.84087206  0.08397137    -0.01600
Br592      Br  0.01546227  0.87047460  0.03750808    -0.01500
C593        C  0.15405998  0.90446850  0.38807263    -0.02700
C594        C  0.16039050  0.89320990  0.35182205     0.07000
C595        C  0.18805542  0.87571782  0.34075623    -0.02800
C596        C  0.20750491  0.86717458  0.36501608    -0.02800
C597        C  0.20150437  0.87888626  0.40114348     0.07100
C598        C  0.17496791  0.89792876  0.41265480    -0.03000
Br599      Br  0.16570124  0.91212545  0.46191922    -0.01500
Br600      Br  0.11541066  0.92606947  0.40420880    -0.01600
Br601      Br  0.24118322  0.83743915  0.34805140    -0.01600
Br602      Br  0.20004468  0.86388196  0.29220870    -0.01500
C603        C  0.14598437  0.90844201  0.10413627    -0.02700
C604        C  0.17830690  0.90517884  0.10927515     0.07000
C605        C  0.18887854  0.90195483  0.14164987    -0.02800
C606        C  0.16742533  0.89488155  0.16494502    -0.02800
C607        C  0.13528397  0.89413794  0.15760481     0.07100
C608        C  0.12462000  0.90513092  0.12967459    -0.03000
Br609      Br  0.08162107  0.91758587  0.12761061    -0.01500
Br610      Br  0.13100610  0.91772158  0.06251338    -0.01600
Br611      Br  0.18170811  0.88725074  0.20766181    -0.01600
Br612      Br  0.23243570  0.90653510  0.15427832    -0.01500
C613        C  0.31941070  0.61490698  0.37296718    -0.02700
C614        C  0.32424548  0.63995740  0.35799253     0.07000
C615        C  0.01691995  0.66001892  0.36755613    -0.02800
C616        C  0.03926286  0.65383784  0.39062506    -0.02800
C617        C  0.03444172  0.62864028  0.40557645     0.07100
C618        C  0.34035271  0.61022717  0.39789110    -0.03000
Br619      Br  0.33002983  0.57974076  0.42281699    -0.01500
Br620      Br  0.28422427  0.58645834  0.35940690    -0.01600
Br621      Br  0.07719545  0.67859287  0.39945570    -0.01600
Br622      Br  0.02279386  0.69463316  0.34735500    -0.01500
C623        C  0.29087844  0.65039071  0.13943552    -0.02700
C624        C  0.29797286  0.62597695  0.15508296     0.07000
C625        C  0.99273945  0.60873826  0.14682586    -0.02800
C626        C  0.01280972  0.61476415  0.12193321    -0.02800
C627        C  0.00635948  0.63989142  0.10742019     0.07100
C628        C  0.31193746  0.65738993  0.11574276    -0.03000
Br629      Br  0.30142729  0.68848980  0.09172620    -0.01500
Br630      Br  0.25153344  0.67293142  0.14795956    -0.01600
Br631      Br  0.04796566  0.58674450  0.10637979    -0.01600
Br632      Br  0.00480670  0.57747635  0.17028543    -0.01500
C633        C  0.19071438  0.62629132  0.41383863    -0.02700
C634        C  0.16336054  0.60838567  0.40327482     0.07000
C635        C  0.15596189  0.59671726  0.36732505    -0.02800
C636        C  0.17547634  0.60382453  0.34229437    -0.02800
C637        C  0.20188757  0.62310881  0.35317254     0.07100
C638        C  0.20937832  0.63448487  0.38898001    -0.03000
Br639      Br  0.24455572  0.66244754  0.40451073    -0.01500
Br640      Br  0.20288674  0.63937735  0.46246347    -0.01600
Br641      Br  0.16434264  0.58984148  0.29346155    -0.01600
Br642      Br  0.11769652  0.57359424  0.35208721    -0.01500
C643        C  0.15726194  0.60761520  0.09018937    -0.02700
C644        C  0.12924041  0.62374155  0.10225791     0.07000
C645        C  0.12159843  0.63174772  0.13801178    -0.02800
C646        C  0.14117824  0.62226251  0.16134675    -0.02800
C647        C  0.17003691  0.60771106  0.14979022     0.07100
C648        C  0.17818616  0.60050816  0.11411127    -0.03000
Br649      Br  0.21912714  0.58409461  0.09832135    -0.01500
Br650      Br  0.16818318  0.59765264  0.04145393    -0.01600
Br651      Br  0.12826435  0.62892120  0.20921216    -0.01600
Br652      Br  0.08553217  0.65768964  0.15584922    -0.01500
C653        C  0.03284878  0.49388460  0.48594271    -0.02700
C654        C  0.02178086  0.52534039  0.49450772     0.07000
C655        C  0.32411227  0.53146849  0.00536948    -0.02800
C656        C  0.30444017  0.00675813  0.00852261    -0.02800
C657        C  0.31537833  0.97518343  0.99913218     0.07100
C658        C  0.01295946  0.96910667  0.48834003    -0.03000
Br659      Br  0.02850970  0.92613704  0.47655450    -0.01500
Br660      Br  0.07587330  0.48519729  0.47252080    -0.01600
Br661      Br  0.26209489  0.01585969  0.02481369    -0.01600
Br662      Br  0.30812324  0.57422099  0.01604585    -0.01500
C663        C  0.15290743  0.77688692  0.48596347    -0.02700
C664        C  0.18409238  0.77595788  0.49707068     0.07000
C665        C  0.19270392  0.75394051  0.01608923    -0.02800
C666        C  0.17056290  0.73266880  0.02268957    -0.02800
C667        C  0.13958402  0.73269010  0.01044432     0.07100
C668        C  0.13074244  0.75545359  0.49221706    -0.03000
Br669      Br  0.08783460  0.75769689  0.47834212    -0.01500
Br670      Br  0.14040821  0.80837382  0.46325251    -0.01600
Br671      Br  0.18299508  0.70281543  0.04763552    -0.01600
Br672      Br  0.23546485  0.75262498  0.03091642    -0.01500
O673        O  0.05197299  0.55198268  0.96169558    -0.81700
O674        O  0.10853093  0.68716778  0.98765918    -0.66400
O675        O  0.09522760  0.60210315  0.98950822    -1.13000
C676        C  0.02742774  0.64659850  0.58137856     1.05200
O677        O  0.10957658  0.70872775  0.54502134    -0.79600
O678        O  0.10883735  0.66396480  0.57923256    -0.67200
Ni679      Ni  0.09024332  0.56808192  0.94749984     1.34900
C680        C  0.10873084  0.63489303  0.57834463     0.83900
O681        O  0.13310105  0.63259920  0.95227630    -0.80200
O682        O  0.12784356  0.57992005  0.92857796    -0.90400
C683        C  0.11730550  0.70894625  0.51426006     0.83500
O684        O  0.06588946  0.59093698  0.92294721    -0.68600
O685        O  0.04569752  0.67056948  0.58896510    -0.87900
C686        C  0.05873682  0.61999869  0.92847008     0.84300
C687        C  0.14067599  0.60645139  0.93039247     1.05900
H688        H  0.05113936  0.66330780  0.51116363     0.37700
O689        O  0.06930610  0.65601493  0.52106251    -1.10600
O690        O  0.09034558  0.61434424  0.55917001    -0.67200
Ni691      Ni  0.06146960  0.61352353  0.52143488     1.26300
O692        O  0.07058379  0.64226485  0.95259549    -0.67500
O693        O  0.02799316  0.62510293  0.55268461    -0.79800
C694        C  0.04320770  0.55037755  0.99149754     0.83700
O695        O  0.05284875  0.57069802  0.51985334    -0.66900
Ni696      Ni  0.07731695  0.68760385  0.56433056     1.27400
Ni697      Ni  0.10180590  0.64435899  0.98730563     1.26100
H698        H  0.11303854  0.59635030  0.00130620     0.38200
O699        O  0.21739773  0.79562221  0.96191475    -0.81700
O700        O  0.28434091  0.92896805  0.97913416    -0.66400
O701        O  0.25972382  0.84687209  0.98364652    -1.13000
C702        C  0.20227095  0.90201276  0.58155350     1.05200
O703        O  0.29090923  0.94956796  0.53698322    -0.79600
O704        O  0.28695143  0.90143591  0.56715829    -0.67200
Ni705      Ni  0.24951788  0.81498801  0.94069181     1.34900
C706        C  0.28143756  0.87303232  0.56725969     0.83900
O707        O  0.30361154  0.87203269  0.94707237    -0.80200
O708        O  0.28071275  0.82892056  0.91284641    -0.90400
C709        C  0.29528531  0.95044824  0.50576180     0.83500
O710        O  0.21884780  0.84037056  0.92707504    -0.68600
O711        O  0.22621823  0.91996135  0.58731632    -0.87900
C712        C  0.22125617  0.86900681  0.92646590     0.84300
C713        C  0.30117666  0.85080189  0.91836514     1.05900
H714        H  0.22557834  0.91456871  0.50819405     0.37700
O715        O  0.24226452  0.90395898  0.51651475    -1.10600
O716        O  0.25707989  0.85816803  0.55351999    -0.67200
Ni717      Ni  0.22842610  0.86319858  0.51803540     1.26300
O718        O  0.24148174  0.88844104  0.94437268    -0.67500
O719        O  0.19764746  0.88092127  0.55265687    -0.79800
C720        C  0.20633384  0.79923480  0.99236554     0.83700
O721        O  0.21372554  0.82245908  0.51797389    -0.66900
Ni722      Ni  0.25810863  0.93199845  0.55927049     1.27400
Ni723      Ni  0.27212927  0.88780105  0.98057169     1.26100
H724        H  0.27666762  0.83836174  0.99426703     0.38200
O725        O  0.22088292  0.70389678  0.79391387    -0.81700
O726        O  0.27595463  0.56552254  0.76941986    -0.66400
O727        O  0.26215093  0.65132749  0.77023669    -1.13000
C728        C  0.19368857  0.60579966  0.67605143     1.05200
O729        O  0.27843007  0.54672568  0.71179155    -0.79600
O730        O  0.27037151  0.58841066  0.67368786    -0.67200
Ni731      Ni  0.25412768  0.68367698  0.81300778     1.34900
C732        C  0.27517982  0.61782217  0.67819688     0.83900
O733        O  0.30123199  0.61957416  0.80367051    -0.80200
O734        O  0.28657324  0.66769755  0.83719484    -0.90400
C735        C  0.28582142  0.54530583  0.74222508     0.83500
O736        O  0.22382282  0.66053855  0.83027003    -0.68600
O737        O  0.20786209  0.57947726  0.67221139    -0.87900
C738        C  0.22292294  0.63131799  0.82875623     0.84300
C739        C  0.30333860  0.64267977  0.83099142     1.05900
H740        H  0.21756233  0.59273947  0.74787314     0.37700
O741        O  0.23594425  0.59863965  0.73727406    -1.10600
O742        O  0.26146457  0.63962702  0.70115051    -0.67200
Ni743      Ni  0.23034364  0.64137239  0.73571948     1.26300
O744        O  0.23926405  0.60997805  0.80779230    -0.67500
O745        O  0.19923386  0.63080992  0.70060095    -0.79800
C746        C  0.21489768  0.70509495  0.76306036     0.83700
O747        O  0.22487590  0.68439024  0.73636184    -0.66900
Ni748      Ni  0.24272033  0.56540790  0.69461402     1.27400
Ni749      Ni  0.26871386  0.60862911  0.77081013     1.26100
H750        H  0.28070896  0.65798826  0.76055793     0.38200
O751        O  0.04718607  0.94670430  0.78691859    -0.81700
O752        O  0.11270221  0.81348325  0.76130405    -0.66400
O753        O  0.09263494  0.89826211  0.76191357    -1.13000
C754        C  0.03763271  0.84667202  0.65943063     1.05200
O755        O  0.12730543  0.80132775  0.70582801    -0.79600
O756        O  0.12110141  0.84930021  0.67565288    -0.67200
Ni757      Ni  0.08403508  0.93049165  0.80475574     1.34900
C758        C  0.11499212  0.87794809  0.67698799     0.83900
O759        O  0.13013311  0.86849570  0.80229780    -0.80200
O760        O  0.12034798  0.91974328  0.82815129    -0.90400
C761        C  0.12866288  0.79682627  0.73597734     0.83500
O762        O  0.05851780  0.90441668  0.82421530    -0.68600
O763        O  0.06147421  0.82842269  0.65399545    -0.87900
C764        C  0.05361244  0.87471550  0.81756650     0.84300
C765        C  0.13523105  0.89411407  0.82600612     1.05900
H766        H  0.05814451  0.83156745  0.72996757     0.37700
O767        O  0.07559851  0.84313515  0.72433403    -1.10600
O768        O  0.09106587  0.89250503  0.69229755    -0.67200
Ni769      Ni  0.06170359  0.88449733  0.72542956     1.26300
O770        O  0.06821140  0.85384171  0.79391908    -0.67500
O771        O  0.03262123  0.86801915  0.68822915    -0.79800
C772        C  0.03785176  0.94682903  0.75659393     0.83700
O773        O  0.04644086  0.92614503  0.72896245    -0.66900
Ni774      Ni  0.09381137  0.81712334  0.68228752     1.27400
Ni775      Ni  0.10262303  0.85609230  0.76337414     1.26100
H776        H  0.11067990  0.90587753  0.75230124     0.38200
C777        C  0.00527393  0.52772604  0.75714964    -0.02700
C778        C  0.30755805  0.52009486  0.74599951     0.07000
C779        C  0.29744466  0.48834893  0.73836254    -0.02800
C780        C  0.31820362  0.96432660  0.74168134    -0.02800
C781        C  0.01578977  0.97204524  0.75341259     0.07100
C782        C  0.02580822  0.00390015  0.76135142    -0.03000
Br783      Br  0.06817336  0.01471531  0.77664981    -0.01500
Br784      Br  0.02033182  0.57051260  0.76470434    -0.01600
Br785      Br  0.30398967  0.92095662  0.73103801    -0.01600
Br786      Br  0.25477635  0.47816395  0.72424322    -0.01500
C787        C  0.14032673  0.75003915  0.75828537    -0.02700
C788        C  0.15078205  0.77296529  0.74224916     0.07000
C789        C  0.18270772  0.77366171  0.73339916    -0.02800
C790        C  0.20400653  0.75235440  0.74163711    -0.02800
C791        C  0.19347125  0.72969251  0.75782275     0.07100
C792        C  0.16163769  0.72862232  0.76621642    -0.03000
Br793      Br  0.14702662  0.69691324  0.78750362    -0.01500
Br794      Br  0.09638244  0.74600723  0.76668973    -0.01600
Br795      Br  0.24795807  0.75503029  0.73224089    -0.01200
Br796      Br  0.19775528  0.80375956  0.71016648    -0.01500
C797        C  0.31643797  0.87939770  0.87536525    -0.02700
C798        C  0.32147167  0.85383946  0.88962531     0.07000
C799        C  0.01368888  0.83334645  0.87818256    -0.02800
C800        C  0.03508436  0.83941584  0.85394874    -0.02800
C801        C  0.02967854  0.86479722  0.83924861     0.07100
C802        C  0.33589648  0.88361324  0.84889002    -0.03000
Br803      Br  0.32446317  0.91510092  0.82551078    -0.01500
Br804      Br  0.28396532  0.91032004  0.89311352    -0.01600
Br805      Br  0.07306619  0.81484144  0.84407848    -0.01600
Br806      Br  0.02065897  0.79867574  0.89804696    -0.01500
C807        C  0.29442007  0.84368139  0.61134887    -0.02700
C808        C  0.30406747  0.85717831  0.58489393     0.07000
C809        C  0.00278126  0.85712392  0.57689069    -0.02800
C810        C  0.02488682  0.84831568  0.59855702    -0.02800
C811        C  0.01513431  0.84384694  0.63055050     0.07100
C812        C  0.31654932  0.83893454  0.63551946    -0.03000
Br813      Br  0.30359895  0.82400821  0.67430929    -0.01500
Br814      Br  0.25186675  0.83015510  0.61376296    -0.01600
Br815      Br  0.06756272  0.84033227  0.58312930    -0.01600
Br816      Br  0.01617906  0.86770754  0.53546813    -0.01500
C817        C  0.15179936  0.90212282  0.88866463    -0.02700
C818        C  0.15919595  0.89293993  0.85265287     0.07000
C819        C  0.18789270  0.87756990  0.84167677    -0.02800
C820        C  0.20759237  0.86907194  0.86573702    -0.02800
C821        C  0.20074533  0.87915071  0.90176711     0.07100
C822        C  0.17300330  0.89611011  0.91323605    -0.03000
Br823      Br  0.16281370  0.90823812  0.96227805    -0.01500
Br824      Br  0.11128198  0.91949833  0.90408669    -0.01600
Br825      Br  0.24223284  0.84085276  0.84836601    -0.01600
Br826      Br  0.20061963  0.86827046  0.79351085    -0.01500
C827        C  0.14741303  0.90759376  0.60489064    -0.02700
C828        C  0.17971735  0.90452212  0.61032506     0.07000
C829        C  0.19012554  0.90208218  0.64310342    -0.02800
C830        C  0.16853397  0.89544227  0.66655125    -0.02800
C831        C  0.13645817  0.89427408  0.65883115     0.07100
C832        C  0.12593243  0.90468540  0.63047260    -0.03000
Br833      Br  0.08293174  0.91692487  0.62788012    -0.01500
Br834      Br  0.13257351  0.91610649  0.56279939    -0.01600
Br835      Br  0.18245334  0.88909936  0.71000186    -0.01600
Br836      Br  0.23357473  0.90715793  0.65613395    -0.01500
C837        C  0.32079222  0.61316304  0.87183371    -0.02700
C838        C  0.32507986  0.63885007  0.85769068     0.07000
C839        C  0.01697403  0.65977496  0.86842418    -0.02800
C840        C  0.03914498  0.65390291  0.89181998    -0.02800
C841        C  0.03498853  0.62796846  0.90576912     0.07100
C842        C  0.34151053  0.60871338  0.89706093    -0.03000
Br843      Br  0.33148846  0.57751991  0.92119401    -0.01500
Br844      Br  0.28657509  0.58362336  0.85695444    -0.01600
Br845      Br  0.07588335  0.68035231  0.90259490    -0.01600
Br846      Br  0.02222324  0.69511931  0.84921992    -0.01500
C847        C  0.29017800  0.65098064  0.63900024    -0.02700
C848        C  0.29771718  0.62708956  0.65522009     0.07000
C849        C  0.99290898  0.61059476  0.64771440    -0.02800
C850        C  0.01297724  0.61666216  0.62286381    -0.02800
C851        C  0.00619845  0.64137814  0.60783034     0.07100
C852        C  0.31138206  0.65835437  0.61561723    -0.03000
Br853      Br  0.30068373  0.68933733  0.59153766    -0.01500
Br854      Br  0.25004882  0.67207924  0.64636244    -0.01600
Br855      Br  0.04854492  0.58908554  0.60796049    -0.01600
Br856      Br  0.00546397  0.58027590  0.67217572    -0.01500
C857        C  0.19218695  0.62439549  0.91472768    -0.02700
C858        C  0.16415106  0.60778070  0.90411562     0.07000
C859        C  0.15624947  0.59716861  0.86825753    -0.02800
C860        C  0.17597992  0.60405674  0.84331111    -0.02800
C861        C  0.20313889  0.62211698  0.85419924     0.07100
C862        C  0.21125174  0.63226339  0.88994007    -0.03000
Br863      Br  0.24785938  0.65804029  0.90548239    -0.01500
Br864      Br  0.20453235  0.63625356  0.96330115    -0.01600
Br865      Br  0.16431003  0.59135343  0.79461193    -0.01600
Br866      Br  0.11698849  0.57597756  0.85318160    -0.01500
C867        C  0.15789670  0.60909259  0.59043813    -0.02700
C868        C  0.12976568  0.62505704  0.60244289     0.07000
C869        C  0.12213552  0.63301159  0.63820080    -0.02800
C870        C  0.14153535  0.62321288  0.66148167    -0.02800
C871        C  0.17034738  0.60852640  0.64997074     0.07100
C872        C  0.17868427  0.60169459  0.61435580    -0.03000
Br873      Br  0.21969853  0.58537933  0.59871028    -0.01500
Br874      Br  0.16921254  0.59998402  0.54187466    -0.01600
Br875      Br  0.12841495  0.62964710  0.70922986    -0.01600
Br876      Br  0.08644887  0.65951089  0.65617449    -0.01500
C877        C  0.03235971  0.49307576  0.98327783    -0.02700
C878        C  0.02173120  0.52470290  0.99349634     0.07000
C879        C  0.32370481  0.53190228  0.50473261    -0.02800
C880        C  0.30386197  0.00714308  0.50749040    -0.02800
C881        C  0.31527929  0.97581124  0.49989969     0.07100
C882        C  0.01247985  0.96827598  0.98562185    -0.03000
Br883      Br  0.02749161  0.92509199  0.97147468    -0.01500
Br884      Br  0.07492820  0.48419674  0.96796193    -0.01600
Br885      Br  0.26070272  0.01575017  0.52066901    -0.01600
Br886      Br  0.30750903  0.57448777  0.51404859    -0.01500
C887        C  0.15280364  0.77610531  0.98610942    -0.02700
C888        C  0.18385674  0.77565234  0.99776568     0.07000
C889        C  0.19289401  0.75404816  0.51515640    -0.02800
C890        C  0.17065172  0.73295967  0.52192165    -0.02800
C891        C  0.13962238  0.73321629  0.50990995     0.07100
C892        C  0.13074263  0.75457178  0.99228187    -0.03000
Br893      Br  0.08807120  0.75602342  0.97729794    -0.01500
Br894      Br  0.14037724  0.80694358  0.96246998    -0.01600
Br895      Br  0.18293028  0.70333610  0.54721601    -0.01600
Br896      Br  0.23571876  0.75236525  0.52966029    -0.01500
O897        O  0.38492581  0.05255335  0.46221777    -0.81700
O898        O  0.44158068  0.18782400  0.48723996    -0.66400
O899        O  0.42835534  0.10273808  0.48932977    -1.13000
C900        C  0.36086481  0.14534780  0.08110410     1.05200
O901        O  0.44280908  0.20812631  0.04544545    -0.79600
O902        O  0.44231024  0.16279010  0.07892328    -0.67200
Ni903      Ni  0.42296833  0.06867543  0.44740099     1.34900
C904        C  0.44175560  0.13376816  0.07820261     0.83900
O905        O  0.46586373  0.13311825  0.45167818    -0.80200
O906        O  0.46031430  0.08049933  0.42787172    -0.90400
C907        C  0.45070091  0.20833622  0.01472382     0.83500
O908        O  0.39825275  0.09148774  0.42309059    -0.68600
O909        O  0.37930697  0.16917274  0.08902282    -0.87900
C910        C  0.39143177  0.12060545  0.42834503     0.84300
C911        C  0.47323178  0.10699093  0.42962292     1.05900
H912        H  0.38467264  0.16279878  0.01120526     0.37700
O913        O  0.40273593  0.15534967  0.02112818    -1.10600
O914        O  0.42313463  0.11343319  0.05915886    -0.67200
Ni915      Ni  0.39471262  0.11282351  0.02116255     1.26300
O916        O  0.40350950  0.14290251  0.45228106    -0.67500
O917        O  0.36105403  0.12436179  0.05205012    -0.79800
C918        C  0.37652408  0.05099828  0.49217442     0.83700
O919        O  0.38593877  0.07001416  0.01932222    -0.66900
Ni920      Ni  0.41071197  0.18664824  0.06457205     1.27400
Ni921      Ni  0.43483212  0.14498178  0.48694989     1.26100
H922        H  0.44631958  0.09699270  0.50092983     0.38200
O923        O  0.55085803  0.29631922  0.46134903    -0.81700
O924        O  0.61701465  0.43000971  0.47976553    -0.66400
O925        O  0.59384690  0.34724825  0.48363345    -1.13000
C926        C  0.53412903  0.40285667  0.08050839     1.05200
O927        O  0.62355318  0.44966706  0.03638568    -0.79600
O928        O  0.61886743  0.40229443  0.06749374    -0.67200
Ni929      Ni  0.58417539  0.31489068  0.44084921     1.34900
C930        C  0.61348391  0.37387709  0.06765023     0.83900
O931        O  0.63666189  0.37353076  0.44650224    -0.80200
O932        O  0.61657219  0.32799242  0.41376879    -0.90400
C933        C  0.62876111  0.44982510  0.00508149     0.83500
O934        O  0.55436734  0.33989857  0.42529628    -0.68600
O935        O  0.55793910  0.42097922  0.08625844    -0.87900
C936        C  0.55538742  0.36896746  0.42602676     0.84300
C937        C  0.63582909  0.35092987  0.41874566     1.05900
H938        H  0.55855154  0.41437700  0.00675064     0.37700
O939        O  0.57502166  0.40392957  0.01565224    -1.10600
O940        O  0.58930194  0.35878319  0.05362109    -0.67200
Ni941      Ni  0.56083823  0.36339580  0.01767516     1.26300
O942        O  0.57431498  0.38909021  0.44527361    -0.67500
O943        O  0.52976685  0.38152173  0.05177012    -0.79800
C944        C  0.54011300  0.29945500  0.49184826     0.83700
O945        O  0.54584751  0.32287221  0.01813620    -0.66900
Ni946      Ni  0.59028725  0.43252409  0.05841921     1.27400
Ni947      Ni  0.60557363  0.38848312  0.48076757     1.26100
H948        H  0.61106916  0.33906949  0.49417208     0.38200
O949        O  0.55408416  0.20440994  0.29251218    -0.81700
O950        O  0.60919625  0.06610179  0.27000823    -0.66400
O951        O  0.59520699  0.15163003  0.26969335    -1.13000
C952        C  0.52684152  0.10529054  0.17579673     1.05200
O953        O  0.61103841  0.04624496  0.21242785    -0.79600
O954        O  0.60371814  0.08763102  0.17392731    -0.67200
Ni955      Ni  0.58680155  0.18414628  0.31222508     1.34900
C956        C  0.60861620  0.11697693  0.17811234     0.83900
O957        O  0.63429410  0.12045814  0.30369666    -0.80200
O958        O  0.61875992  0.16825745  0.33716112    -0.90400
C959        C  0.61865119  0.04536646  0.24297847     0.83500
O960        O  0.55583885  0.16107487  0.32857681    -0.68600
O961        O  0.54111760  0.07907184  0.17211551    -0.87900
C962        C  0.55519294  0.13200324  0.32770185     0.84300
C963        C  0.63593447  0.14353907  0.33108818     1.05900
H964        H  0.55066395  0.09294360  0.24800997     0.37700
O965        O  0.56905148  0.09868105  0.23729188    -1.10600
O966        O  0.59471691  0.13896187  0.20066302    -0.67200
Ni967      Ni  0.56345524  0.14125295  0.23517334     1.26300
O968        O  0.57224194  0.11069253  0.30769393    -0.67500
O969        O  0.53233709  0.13040822  0.20016525    -0.79800
C970        C  0.54801345  0.20506937  0.26151085     0.83700
O971        O  0.55798907  0.18407261  0.23507117    -0.66900
Ni972      Ni  0.57568952  0.06505687  0.19490731     1.27400
Ni973      Ni  0.60183453  0.10906634  0.27078938     1.26100
H974        H  0.61376157  0.15829803  0.26001530     0.38200
O975        O  0.38042880  0.44674209  0.28755855    -0.81700
O976        O  0.44626292  0.31403263  0.26095798    -0.66400
O977        O  0.42604552  0.39872755  0.26178772    -1.13000
C978        C  0.36964653  0.34705928  0.16009946     1.05200
O979        O  0.46013834  0.30180618  0.20526300    -0.79600
O980        O  0.45298686  0.34912927  0.17419239    -0.67200
Ni981      Ni  0.41785040  0.43090543  0.30476974     1.34900
C982        C  0.44719451  0.37794581  0.17596575     0.83900
O983        O  0.46395686  0.36896403  0.30182715    -0.80200
O984        O  0.45479677  0.42034593  0.32745072    -0.90400
C985        C  0.46186560  0.29729040  0.23538960     0.83500
O986        O  0.39288937  0.40481099  0.32483716    -0.68600
O987        O  0.39309170  0.32828577  0.15451401    -0.87900
C988        C  0.38801683  0.37509209  0.31806048     0.84300
C989        C  0.46950769  0.39460327  0.32534811     1.05900
H990        H  0.39124409  0.33227511  0.23046834     0.37700
O991        O  0.40865233  0.34367574  0.22446067    -1.10600
O992        O  0.42380516  0.39289849  0.19215464    -0.67200
Ni993      Ni  0.39474789  0.38503888  0.22567737     1.26300
O994        O  0.40221111  0.35428091  0.29403181    -0.67500
O995        O  0.36523257  0.36872491  0.18880700    -0.79800
C996        C  0.37082579  0.44706041  0.25738017     0.83700
O997        O  0.37950676  0.42671837  0.22953458    -0.66900
Ni998      Ni  0.42606623  0.31725676  0.18219944     1.27400
Ni999      Ni  0.43616108  0.35659266  0.26311922     1.26100
H1000       H  0.44396254  0.40633383  0.25194702     0.38200
C1001       C  0.33773770  0.02795019  0.25905144    -0.02700
C1002       C  0.64027102  0.02016972  0.24703515     0.07000
C1003       C  0.63042448  0.98827676  0.23853521    -0.02800
C1004       C  0.65116780  0.46431999  0.24206980    -0.02800
C1005       C  0.34852279  0.47220390  0.25460123     0.07100
C1006       C  0.35824590  0.50417426  0.26337571    -0.03000
Br1007     Br  0.40026200  0.51522916  0.27986940    -0.01500
Br1008     Br  0.35273920  0.07081236  0.26713849    -0.01600
Br1009     Br  0.63719055  0.42083054  0.23070945    -0.01600
Br1010     Br  0.58821700  0.97771569  0.22268124    -0.01500
C1011       C  0.47369867  0.25090573  0.25828383    -0.02700
C1012       C  0.48392913  0.27325768  0.24132485     0.07000
C1013       C  0.51556513  0.27311598  0.23108486    -0.02800
C1014       C  0.53681527  0.25144905  0.23867389    -0.02800
C1015       C  0.52655367  0.22948205  0.25593811     0.07100
C1016       C  0.49497024  0.22918003  0.26564187    -0.03000
Br1017     Br  0.48051509  0.19787930  0.28762163    -0.01500
Br1018     Br  0.43004133  0.24816802  0.26901399    -0.01600
Br1019     Br  0.58035224  0.25258000  0.22665733    -0.01200
Br1020     Br  0.53039960  0.30274571  0.20711827    -0.01500
C1021       C  0.65031594  0.37819938  0.37440065    -0.02700
C1022       C  0.65637100  0.35373534  0.39007733     0.07000
C1023       C  0.34970508  0.33446420  0.38012495    -0.02800
C1024       C  0.37103306  0.34077876  0.35595952    -0.02800
C1025       C  0.36449559  0.36496703  0.33986713     0.07100
C1026       C  0.66983613  0.38244336  0.34801321    -0.03000
Br1027     Br  0.65744819  0.41202521  0.32257443    -0.01500
Br1028     Br  0.61638829  0.40778940  0.39022972    -0.01600
Br1029     Br  0.41037831  0.31841389  0.34786401    -0.01600
Br1030     Br  0.35820512  0.30124486  0.40171863    -0.01500
C1031       C  0.62647336  0.34427856  0.11166022    -0.02700
C1032       C  0.63616177  0.35825662  0.08558621     0.07000
C1033       C  0.33496867  0.35867583  0.07806296    -0.02800
C1034       C  0.35693628  0.34941790  0.09955048    -0.02800
C1035       C  0.34707960  0.34461876  0.13133596     0.07100
C1036       C  0.64845934  0.33966097  0.13607932    -0.03000
Br1037     Br  0.63528978  0.32473944  0.17478193    -0.01500
Br1038     Br  0.58423182  0.32948945  0.11290437    -0.01600
Br1039     Br  0.39951882  0.34087460  0.08397084    -0.01600
Br1040     Br  0.34879564  0.37047454  0.03750665    -0.01500
C1041       C  0.48739030  0.40446330  0.38807473    -0.02700
C1042       C  0.49372246  0.39320769  0.35182432     0.07000
C1043       C  0.52138821  0.37571718  0.34075846    -0.02800
C1044       C  0.54083740  0.36717295  0.36501788    -0.02800
C1045       C  0.53483577  0.37888239  0.40114518     0.07100
C1046       C  0.50829781  0.39792250  0.41265671    -0.03000
Br1047     Br  0.49902872  0.41211422  0.46192072    -0.01500
Br1048     Br  0.44873975  0.42606200  0.40421056    -0.01600
Br1049     Br  0.57451636  0.33743860  0.34805254    -0.01600
Br1050     Br  0.53337906  0.36388514  0.29221150    -0.01500
C1051       C  0.47931776  0.40844324  0.10413555    -0.02700
C1052       C  0.51164029  0.40517898  0.10927316     0.07000
C1053       C  0.52221270  0.40195460  0.14164746    -0.02800
C1054       C  0.50076003  0.39488146  0.16494314    -0.02800
C1055       C  0.46861859  0.39413825  0.15760383     0.07100
C1056       C  0.45795397  0.40513201  0.12967436    -0.03000
Br1057     Br  0.41495518  0.41758820  0.12761238    -0.01500
Br1058     Br  0.46433896  0.41772527  0.06251420    -0.01600
Br1059     Br  0.51504360  0.38725066  0.20765968    -0.01600
Br1060     Br  0.56577008  0.40653481  0.15427501    -0.01500
C1061       C  0.65274471  0.11490243  0.37296472    -0.02700
C1062       C  0.65757791  0.13995427  0.35799180     0.07000
C1063       C  0.35025700  0.16001774  0.36755380    -0.02800
C1064       C  0.37259884  0.15383695  0.39062410    -0.02800
C1065       C  0.36777631  0.12864020  0.40557636     0.07100
C1066       C  0.67368696  0.11022281  0.39788856    -0.03000
Br1067     Br  0.66336549  0.07973439  0.42281236    -0.01500
Br1068     Br  0.61755974  0.08645199  0.35940270    -0.01600
Br1069     Br  0.41053183  0.17859127  0.39945575    -0.01600
Br1070     Br  0.35613347  0.19463010  0.34735033    -0.01500
C1071       C  0.62421245  0.15039140  0.13943739    -0.02700
C1072       C  0.63130656  0.12597743  0.15508466     0.07000
C1073       C  0.32607453  0.10873942  0.14682488    -0.02800
C1074       C  0.34614462  0.11476454  0.12193172    -0.02800
C1075       C  0.33969410  0.13989105  0.10741761     0.07100
C1076       C  0.64527151  0.15739042  0.11574449    -0.03000
Br1077     Br  0.63476162  0.18849046  0.09172806    -0.01500
Br1078     Br  0.58486786  0.17293279  0.14796187    -0.01600
Br1079     Br  0.38130063  0.08674481  0.10637918    -0.01600
Br1080     Br  0.33814200  0.07747874  0.17028600    -0.01500
C1081       C  0.52404839  0.12628629  0.41383941    -0.02700
C1082       C  0.49669390  0.10838171  0.40327587     0.07000
C1083       C  0.48929486  0.09671374  0.36732617    -0.02800
C1084       C  0.50880901  0.10382129  0.34229539    -0.02800
C1085       C  0.53522068  0.12310492  0.35317332     0.07100
C1086       C  0.54271244  0.13447964  0.38898067    -0.03000
Br1087     Br  0.57789144  0.16244011  0.40451107    -0.01500
Br1088     Br  0.53622139  0.13937108  0.46246403    -0.01600
Br1089     Br  0.49767440  0.08983950  0.29346277    -0.01600
Br1090     Br  0.45102944  0.07359076  0.35208861    -0.01500
C1091       C  0.49059417  0.10761040  0.09018733    -0.02700
C1092       C  0.46257369  0.12373902  0.10225557     0.07000
C1093       C  0.45493219  0.13174751  0.13800968    -0.02800
C1094       C  0.47451150  0.12226263  0.16134531    -0.02800
C1095       C  0.50336961  0.10770959  0.14978911     0.07100
C1096       C  0.51151825  0.10050405  0.11410978    -0.03000
Br1097     Br  0.55245826  0.08408761  0.09831960    -0.01500
Br1098     Br  0.50151430  0.09764345  0.04145129    -0.01600
Br1099     Br  0.46159721  0.12892326  0.20921088    -0.01600
Br1100     Br  0.41886703  0.15769157  0.15584634    -0.01500
C1101       C  0.36617987  0.99388476  0.48594311    -0.02700
C1102       C  0.35511182  0.02534043  0.49450830     0.07000
C1103       C  0.65744454  0.03147045  0.00536922    -0.02800
C1104       C  0.63777364  0.50675640  0.00852184    -0.02800
C1105       C  0.64871231  0.47518185  0.99913103     0.07100
C1106       C  0.34629529  0.46910867  0.48834284    -0.03000
Br1107     Br  0.36184673  0.42613955  0.47655953    -0.01500
Br1108     Br  0.40920399  0.98519757  0.47251945    -0.01600
Br1109     Br  0.59542857  0.51585734  0.02481401    -0.01600
Br1110     Br  0.64145605  0.07422317  0.01604545    -0.01500
C1111       C  0.48624080  0.27688747  0.48596987    -0.02700
C1112       C  0.51742636  0.27595684  0.49707442     0.07000
C1113       C  0.52603811  0.25393918  0.01608773    -0.02800
C1114       C  0.50389767  0.23266626  0.02268661    -0.02800
C1115       C  0.47291928  0.23268592  0.01043936     0.07100
C1116       C  0.46407626  0.25545319  0.49222222    -0.03000
Br1117     Br  0.42116813  0.25769689  0.47834844    -0.01500
Br1118     Br  0.47374036  0.30837760  0.46326393    -0.01600
Br1119     Br  0.51633025  0.20281317  0.04763276    -0.01600
Br1120     Br  0.56879815  0.25262716  0.03091926    -0.01500
O1121       O  0.38530694  0.05197990  0.96169263    -0.81700
O1122       O  0.44186530  0.18716408  0.98765491    -0.66400
O1123       O  0.42856156  0.10209998  0.98950514    -1.13000
C1124       C  0.36076187  0.14659707  0.58138118     1.05200
O1125       O  0.44291151  0.20872516  0.54502340    -0.79600
O1126       O  0.44217151  0.16396195  0.57923421    -0.67200
Ni1127     Ni  0.42357759  0.06807848  0.94749696     1.34900
C1128       C  0.44206467  0.13489009  0.57834593     0.83900
O1129       O  0.46643531  0.13259539  0.95227290    -0.80200
O1130       O  0.46117829  0.07991612  0.92857535    -0.90400
C1131       C  0.45064027  0.20894393  0.51426216     0.83500
O1132       O  0.39922412  0.09093307  0.92294332    -0.68600
O1133       O  0.37903184  0.17056789  0.58896738    -0.87900
C1134       C  0.39207093  0.11999465  0.92846626     0.84300
C1135       C  0.47401070  0.10644744  0.93038970     1.05900
H1136       H  0.38447338  0.16330657  0.51116601     0.37700
O1137       O  0.40263993  0.15601337  0.52106448    -1.10600
O1138       O  0.42367927  0.11434162  0.55917104    -0.67200
Ni1139     Ni  0.39480283  0.11352196  0.52143661     1.26300
O1140       O  0.40391769  0.14226090  0.95259181    -0.67500
O1141       O  0.36132700  0.12510137  0.55268730    -0.79800
C1142       C  0.37654113  0.05037502  0.99149452     0.83700
O1143       O  0.38618141  0.07069652  0.51985431    -0.66900
Ni1144     Ni  0.41065154  0.18760177  0.56433268     1.27400
Ni1145     Ni  0.43514006  0.14435555  0.98730197     1.26100
H1146       H  0.44637209  0.09634737  0.00130304     0.38200
O1147       O  0.55073327  0.29561959  0.96191304    -0.81700
O1148       O  0.61767533  0.42896618  0.97913264    -0.66400
O1149       O  0.59305740  0.34687055  0.98364529    -1.13000
C1150       C  0.53560362  0.40201405  0.58155308     1.05200
O1151       O  0.62424246  0.44956728  0.53698109    -0.79600
O1152       O  0.62028449  0.40143630  0.56715762    -0.67200
Ni1153     Ni  0.58285227  0.31498656  0.94069018     1.34900
C1154       C  0.61477025  0.37303309  0.56726014     0.83900
O1155       O  0.63694626  0.37203062  0.94707176    -0.80200
O1156       O  0.61404629  0.32892007  0.91284456    -0.90400
C1157       C  0.62861934  0.45044616  0.50575931     0.83500
O1158       O  0.55218135  0.34036895  0.92707463    -0.68600
O1159       O  0.55955122  0.41996224  0.58731548    -0.87900
C1160       C  0.55459014  0.36900502  0.92646497     0.84300
C1161       C  0.63451084  0.35080078  0.91836392     1.05900
H1162       H  0.55891204  0.41456765  0.50819231     0.37700
O1163       O  0.57559785  0.40395815  0.51651372    -1.10600
O1164       O  0.59041217  0.35816900  0.55352134    -0.67200
Ni1165     Ni  0.56175880  0.36319842  0.51803588     1.26300
O1166       O  0.57481628  0.38843900  0.94437098    -0.67500
O1167       O  0.53097984  0.38092247  0.55265659    -0.79800
C1168       C  0.53966753  0.29923298  0.99236313     0.83700
O1169       O  0.54705744  0.32245959  0.51797605    -0.66900
Ni1170     Ni  0.59144176  0.43199850  0.55926901     1.27400
Ni1171     Ni  0.60546345  0.38779932  0.98057040     1.26100
H1172       H  0.61000091  0.33836011  0.99426644     0.38200
O1173       O  0.55421830  0.20389702  0.79391388    -0.81700
O1174       O  0.60929129  0.06552280  0.76942006    -0.66400
O1175       O  0.59548550  0.15132731  0.77023639    -1.13000
C1176       C  0.52702146  0.10579682  0.67605337     1.05200
O1177       O  0.61176597  0.04672562  0.71179183    -0.79600
O1178       O  0.60370410  0.08840932  0.67368709    -0.67200
Ni1179     Ni  0.58746218  0.18367638  0.81300784     1.34900
C1180       C  0.60851260  0.11782078  0.67819594     0.83900
O1181       O  0.63456849  0.11957486  0.80366905    -0.80200
O1182       O  0.61990712  0.16769650  0.83719515    -0.90400
C1183       C  0.61915794  0.04530605  0.74222528     0.83500
O1184       O  0.55715658  0.16053754  0.83026871    -0.68600
O1185       O  0.54119493  0.07947451  0.67221401    -0.87900
C1186       C  0.55625801  0.13131709  0.82875568     0.84300
C1187       C  0.63667388  0.14267969  0.83099075     1.05900
H1188       H  0.55089777  0.09273862  0.74787475     0.37700
O1189       O  0.56927924  0.09863885  0.73727497    -1.10600
O1190       O  0.59479802  0.13962579  0.70115008    -0.67200
Ni1191     Ni  0.56367767  0.14137131  0.73571979     1.26300
O1192       O  0.57260060  0.10997775  0.80779292    -0.67500
O1193       O  0.53256741  0.13080776  0.70060178    -0.79800
C1194       C  0.54823219  0.20509463  0.76306038     0.83700
O1195       O  0.55820894  0.18438907  0.73636162    -0.66900
Ni1196     Ni  0.57605473  0.06540652  0.69461533     1.27400
Ni1197     Ni  0.60204955  0.10862909  0.77080995     1.26100
H1198       H  0.61404328  0.15798856  0.76055721     0.38200
O1199       O  0.38052165  0.44670567  0.78691942    -0.81700
O1200       O  0.44603599  0.31348347  0.76130552    -0.66400
O1201       O  0.42596962  0.39826243  0.76191427    -1.13000
C1202       C  0.37096674  0.34667203  0.65943228     1.05200
O1203       O  0.46064000  0.30132846  0.70582983    -0.79600
O1204       O  0.45443559  0.34930049  0.67565389    -0.67200
Ni1205     Ni  0.41737061  0.43049256  0.80475616     1.34900
C1206       C  0.44832619  0.37794832  0.67698874     0.83900
O1207       O  0.46346739  0.36849586  0.80229855    -0.80200
O1208       O  0.45368372  0.41974393  0.82815103    -0.90400
C1209       C  0.46199720  0.29682678  0.73597910     0.83500
O1210       O  0.39185318  0.40441829  0.82421675    -0.68600
O1211       O  0.39480818  0.32842259  0.65399722    -0.87900
C1212       C  0.38694703  0.37471724  0.81756824     0.84300
C1213       C  0.46856615  0.39411443  0.82600615     1.05900
H1214       H  0.39147880  0.33156807  0.72996892     0.37700
O1215       O  0.40893256  0.34313551  0.72433542    -1.10600
O1216       O  0.42439993  0.39250517  0.69229832    -0.67200
Ni1217     Ni  0.39503791  0.38449777  0.72543071     1.26300
O1218       O  0.40154542  0.35384294  0.79392069    -0.67500
O1219       O  0.36595533  0.36801948  0.68823060    -0.79800
C1220       C  0.37118706  0.44683021  0.75659479     0.83700
O1221       O  0.37977547  0.42614563  0.72896340    -0.66900
Ni1222     Ni  0.42714568  0.31712362  0.68228915     1.27400
Ni1223     Ni  0.43595714  0.35609260  0.76337531     1.26100
H1224       H  0.44401453  0.40587733  0.75230163     0.38200
C1225       C  0.33860322  0.02772477  0.75715219    -0.02700
C1226       C  0.64089476  0.02009522  0.74599967     0.07000
C1227       C  0.63078162  0.98834920  0.73836211    -0.02800
C1228       C  0.65153610  0.46432631  0.74168147    -0.02800
C1229       C  0.34912516  0.47204657  0.75341341     0.07100
C1230       C  0.35914394  0.50390132  0.76135063    -0.03000
Br1231     Br  0.40150972  0.51471615  0.77664665    -0.01500
Br1232     Br  0.35366095  0.07051170  0.76470955    -0.01600
Br1233     Br  0.63732295  0.42095602  0.73103759    -0.01600
Br1234     Br  0.58811353  0.97816411  0.72424209    -0.01500
C1235       C  0.47366139  0.25003936  0.75828671    -0.02700
C1236       C  0.48411663  0.27296599  0.74225112     0.07000
C1237       C  0.51604244  0.27366295  0.73340174    -0.02800
C1238       C  0.53734139  0.25235577  0.74163978    -0.02800
C1239       C  0.52680590  0.22969256  0.75782343     0.07100
C1240       C  0.49497231  0.22862189  0.76621658    -0.03000
Br1241     Br  0.48036137  0.19691154  0.78750201    -0.01500
Br1242     Br  0.42971730  0.24600790  0.76669235    -0.01600
Br1243     Br  0.58129337  0.25503389  0.73224708    -0.01200
Br1244     Br  0.53108996  0.30376107  0.71016946    -0.01500
C1245       C  0.64977199  0.37939701  0.87536431    -0.02700
C1246       C  0.65480599  0.35383882  0.88962436     0.07000
C1247       C  0.34702206  0.33334955  0.87818497    -0.02800
C1248       C  0.36841801  0.33941858  0.85395132    -0.02800
C1249       C  0.36301275  0.36479974  0.83925070     0.07100
C1250       C  0.66923116  0.38361357  0.84889007    -0.03000
Br1251     Br  0.65779800  0.41510179  0.82551148    -0.01500
Br1252     Br  0.61729785  0.41031788  0.89311127    -0.01600
Br1253     Br  0.40639975  0.31484396  0.84408187    -0.01600
Br1254     Br  0.35399234  0.29868012  0.89805131    -0.01500
C1255       C  0.62775221  0.34368227  0.61134955    -0.02700
C1256       C  0.63739999  0.35717930  0.58489482     0.07000
C1257       C  0.33611613  0.35712446  0.57689235    -0.02800
C1258       C  0.35822149  0.34831645  0.59855901    -0.02800
C1259       C  0.34846860  0.34384698  0.63055198     0.07100
C1260       C  0.64988122  0.33893481  0.63552004    -0.03000
Br1261     Br  0.63693044  0.32400786  0.67430929    -0.01500
Br1262     Br  0.58519859  0.33015681  0.61376376    -0.01600
Br1263     Br  0.40089796  0.34033499  0.58313275    -0.01600
Br1264     Br  0.34951437  0.36770822  0.53547003    -0.01500
C1265       C  0.48513424  0.40212275  0.88866428    -0.02700
C1266       C  0.49253099  0.39294005  0.85265262     0.07000
C1267       C  0.52122733  0.37756928  0.84167629    -0.02800
C1268       C  0.54092644  0.36907031  0.86573628    -0.02800
C1269       C  0.53407936  0.37914898  0.90176634     0.07100
C1270       C  0.50633769  0.39610901  0.91323548    -0.03000
Br1271     Br  0.49614769  0.40823631  0.96227734    -0.01500
Br1272     Br  0.44461732  0.41949974  0.90408642    -0.01600
Br1273     Br  0.57556597  0.34084990  0.84836490    -0.01600
Br1274     Br  0.53395445  0.36827031  0.79351051    -0.01500
C1275       C  0.48074585  0.40759507  0.60489138    -0.02700
C1276       C  0.51305033  0.40452353  0.61032509     0.07000
C1277       C  0.52345901  0.40208343  0.64310323    -0.02800
C1278       C  0.50186793  0.39544275  0.66655112    -0.02800
C1279       C  0.46979200  0.39427442  0.65883161     0.07100
C1280       C  0.45926575  0.40468659  0.63047381    -0.03000
Br1281     Br  0.41626530  0.41692785  0.62788350    -0.01500
Br1282     Br  0.46590534  0.41610783  0.56280055    -0.01600
Br1283     Br  0.51578811  0.38909958  0.71000130    -0.01600
Br1284     Br  0.56690821  0.40716032  0.65613345    -0.01500
C1285       C  0.65412748  0.11316317  0.87183297    -0.02700
C1286       C  0.65841515  0.13885008  0.85768984     0.07000
C1287       C  0.35030510  0.15977421  0.86842498    -0.02800
C1288       C  0.37247727  0.15390046  0.89181862    -0.02800
C1289       C  0.36832222  0.12796434  0.90576541     0.07100
C1290       C  0.67484504  0.10871446  0.89706121    -0.03000
Br1291     Br  0.66482176  0.07752292  0.92119636    -0.01500
Br1292     Br  0.61991164  0.08362218  0.85695232    -0.01600
Br1293     Br  0.40921582  0.18034958  0.90259300    -0.01600
Br1294     Br  0.35555180  0.19512201  0.84922577    -0.01500
C1295       C  0.62351082  0.15097973  0.63899976    -0.02700
C1296       C  0.63104974  0.12708795  0.65521868     0.07000
C1297       C  0.32624273  0.11059582  0.64771906    -0.02800
C1298       C  0.34631146  0.11666268  0.62286852    -0.02800
C1299       C  0.33953236  0.14137736  0.60783318     0.07100
C1300       C  0.64471545  0.15835476  0.61561807    -0.03000
Br1301     Br  0.63401817  0.18934002  0.59154119    -0.01500
Br1302     Br  0.58338095  0.17207698  0.64636082    -0.01600
Br1303     Br  0.38187992  0.08908674  0.60796734    -0.01600
Br1304     Br  0.33879829  0.08027987  0.67218390    -0.01500
C1305       C  0.52552229  0.12439082  0.91472581    -0.02700
C1306       C  0.49748607  0.10777680  0.90411323     0.07000
C1307       C  0.48958410  0.09716656  0.86825522    -0.02800
C1308       C  0.50931438  0.10405594  0.84330940    -0.02800
C1309       C  0.53647374  0.12211540  0.85419811     0.07100
C1310       C  0.54458698  0.13225995  0.88993886    -0.03000
Br1311     Br  0.58119474  0.15803635  0.90548204    -0.01500
Br1312     Br  0.53786809  0.13624618  0.96329909    -0.01600
Br1313     Br  0.49764374  0.09135539  0.79461048    -0.01600
Br1314     Br  0.45032285  0.07597627  0.85317892    -0.01500
C1315       C  0.49122877  0.10908669  0.59043950    -0.02700
C1316       C  0.46309903  0.12505377  0.60244439     0.07000
C1317       C  0.45546961  0.13301042  0.63820261    -0.02800
C1318       C  0.47486875  0.12321127  0.66148372    -0.02800
C1319       C  0.50367987  0.10852273  0.64997273     0.07100
C1320       C  0.51201600  0.10168849  0.61435735    -0.03000
Br1321     Br  0.55302899  0.08536956  0.59871121    -0.01500
Br1322     Br  0.50254378  0.09997512  0.54187554    -0.01600
Br1323     Br  0.46174849  0.12964741  0.70923222    -0.01600
Br1324     Br  0.41978507  0.15951306  0.65617634    -0.01500
C1325       C  0.36569232  0.99307305  0.98327223    -0.02700
C1326       C  0.35506441  0.02470036  0.99349284     0.07000
C1327       C  0.65703776  0.03190262  0.50473219    -0.02800
C1328       C  0.63719704  0.50714152  0.50749077    -0.02800
C1329       C  0.64861329  0.47580905  0.49989658     0.07100
C1330       C  0.34581447  0.46827685  0.98562620    -0.03000
Br1331     Br  0.36082539  0.42509254  0.97148082    -0.01500
Br1332     Br  0.40826061  0.98419415  0.96795582    -0.01600
Br1333     Br  0.59403905  0.51574971  0.52067476    -0.01600
Br1334     Br  0.64084204  0.07448807  0.51404712    -0.01500
C1335       C  0.48613878  0.27610014  0.98610294    -0.02700
C1336       C  0.51719108  0.27564972  0.99776249     0.07000
C1337       C  0.52622899  0.25404509  0.51515710    -0.02800
C1338       C  0.50398696  0.23295622  0.52192205    -0.02800
C1339       C  0.47295707  0.23321410  0.50991238     0.07100
C1340       C  0.46407809  0.25456626  0.99227512    -0.03000
Br1341     Br  0.42140719  0.25601590  0.97728868    -0.01500
Br1342     Br  0.47371295  0.30693519  0.96245892    -0.01600
Br1343     Br  0.51626647  0.20333045  0.54721322    -0.01600
Br1344     Br  0.56905455  0.25236026  0.52965740    -0.01500
O1345       O  0.38493114  0.55255194  0.46221540    -0.81700
O1346       O  0.44157847  0.68782906  0.48724130    -0.66400
O1347       O  0.42835631  0.60274176  0.48932886    -1.13000
C1348       C  0.36086245  0.64535046  0.08110558     1.05200
O1349       O  0.44280729  0.70813166  0.04545036    -0.79600
O1350       O  0.44230792  0.66279445  0.07892780    -0.67200
Ni1351     Ni  0.42297073  0.56867973  0.44739876     1.34900
C1352       C  0.44175356  0.63377232  0.07820639     0.83900
O1353       O  0.46586462  0.63312576  0.45168002    -0.80200
O1354       O  0.46031416  0.58050795  0.42786838    -0.90400
C1355       C  0.45069948  0.70834211  0.01472888     0.83500
O1356       O  0.39825065  0.59149179  0.42309213    -0.68600
O1357       O  0.37930433  0.66917572  0.08902540    -0.87900
C1358       C  0.39143070  0.62060976  0.42834644     0.84300
C1359       C  0.47323201  0.60699988  0.42962216     1.05900
H1360       H  0.38467167  0.66280301  0.01120834     0.37700
O1361       O  0.40273487  0.65535401  0.02113148    -1.10600
O1362       O  0.42313310  0.61343731  0.05916189    -0.67200
Ni1363     Ni  0.39471189  0.61282748  0.02116493     1.26300
O1364       O  0.40351028  0.64290676  0.45228088    -0.67500
O1365       O  0.36105247  0.62436497  0.05205129    -0.79800
C1366       C  0.37652771  0.55099807  0.49217200     0.83700
O1367       O  0.38593877  0.57001789  0.01932451    -0.66900
Ni1368     Ni  0.41070983  0.68665238  0.06457587     1.27400
Ni1369     Ni  0.43483191  0.64498647  0.48695039     1.26100
H1370       H  0.44632017  0.59699660  0.50092922     0.38200
O1371       O  0.55085457  0.79632443  0.46134943    -0.81700
O1372       O  0.61701513  0.93001236  0.47976519    -0.66400
O1373       O  0.59384677  0.84725098  0.48363325    -1.13000
C1374       C  0.53413118  0.90285831  0.08051347     1.05200
O1375       O  0.62355364  0.94967204  0.03639065    -0.79600
O1376       O  0.61886996  0.90229707  0.06749590    -0.67200
Ni1377     Ni  0.58417375  0.81489336  0.44084962     1.34900
C1378       C  0.61348686  0.87387936  0.06765135     0.83900
O1379       O  0.63666045  0.87353316  0.44649976    -0.80200
O1380       O  0.61657198  0.82799279  0.41376921    -0.90400
C1381       C  0.62876132  0.94983063  0.00508652     0.83500
O1382       O  0.55436735  0.83990198  0.42529558    -0.68600
O1383       O  0.55794138  0.92098082  0.08626397    -0.87900
C1384       C  0.55538721  0.86897095  0.42602649     0.84300
C1385       C  0.63582831  0.85093059  0.41874459     1.05900
H1386       H  0.55855140  0.91438200  0.00675641     0.37700
O1387       O  0.57502197  0.90393423  0.01565693    -1.10600
O1388       O  0.58930447  0.85878590  0.05362289    -0.67200
Ni1389     Ni  0.56083946  0.86339965  0.01767858     1.26300
O1390       O  0.57431408  0.88909385  0.44527432    -0.67500
O1391       O  0.52976882  0.88152412  0.05177474    -0.79800
C1392       C  0.54011101  0.79945954  0.49184910     0.83700
O1393       O  0.54584991  0.82287531  0.01813854    -0.66900
Ni1394     Ni  0.59028866  0.93252737  0.05842435     1.27400
Ni1395     Ni  0.60557374  0.88848575  0.48076698     1.26100
H1396       H  0.61106950  0.83907196  0.49417126     0.38200
O1397       O  0.55409120  0.70441368  0.29251070    -0.81700
O1398       O  0.60919723  0.56610332  0.27000607    -0.66400
O1399       O  0.59521105  0.65163172  0.26969045    -1.13000
C1400       C  0.52684263  0.60529354  0.17579635     1.05200
O1401       O  0.61103919  0.54624670  0.21242568    -0.79600
O1402       O  0.60371955  0.58763267  0.17392553    -0.67200
Ni1403     Ni  0.58680851  0.68414902  0.31222227     1.34900
C1404       C  0.60861745  0.61697851  0.17811015     0.83900
O1405       O  0.63429774  0.62045861  0.30369332    -0.80200
O1406       O  0.61876688  0.66825918  0.33715746    -0.90400
C1407       C  0.61865188  0.54536796  0.24297620     0.83500
O1408       O  0.55584526  0.66107968  0.32857578    -0.68600
O1409       O  0.54111897  0.57907488  0.17211424    -0.87900
C1410       C  0.55519706  0.63200805  0.32770055     0.84300
C1411       C  0.63593990  0.64353973  0.33108450     1.05900
H1412       H  0.55066596  0.59294628  0.24800880     0.37700
O1413       O  0.56905342  0.59868345  0.23729035    -1.10600
O1414       O  0.59471808  0.63896362  0.20066035    -0.67200
Ni1415     Ni  0.56345775  0.64125534  0.23517194     1.26300
O1416       O  0.57224461  0.61069605  0.30769227    -0.67500
O1417       O  0.53233814  0.63041102  0.20016524    -0.79800
C1418       C  0.54801828  0.70507210  0.26150958     0.83700
O1419       O  0.55799236  0.68407485  0.23506953    -0.66900
Ni1420     Ni  0.57569057  0.56505915  0.19490563     1.27400
Ni1421     Ni  0.60183714  0.60906799  0.27078699     1.26100
H1422       H  0.61376564  0.65829860  0.26001119     0.38200
O1423       O  0.38042684  0.94673902  0.28755580    -0.81700
O1424       O  0.44626295  0.81403108  0.26095782    -0.66400
O1425       O  0.42604397  0.89872495  0.26178497    -1.13000
C1426       C  0.36964586  0.84705668  0.16009783     1.05200
O1427       O  0.46013580  0.80180174  0.20526168    -0.79600
O1428       O  0.45298766  0.84912757  0.17419532    -0.67200
Ni1429     Ni  0.41784989  0.93090405  0.30476610     1.34900
C1430       C  0.44719405  0.87794342  0.17596666     0.83900
O1431       O  0.46395609  0.86896345  0.30182569    -0.80200
O1432       O  0.45479802  0.92034627  0.32744563    -0.90400
C1433       C  0.46186475  0.79728800  0.23538910     0.83500
O1434       O  0.39289058  0.90481030  0.32483628    -0.68600
O1435       O  0.39309269  0.82828535  0.15451169    -0.87900
C1436       C  0.38801733  0.87509155  0.31806018     0.84300
C1437       C  0.46950841  0.89460362  0.32534468     1.05900
H1438       H  0.39124334  0.83227119  0.23046750     0.37700
O1439       O  0.40865117  0.84367237  0.22445958    -1.10600
O1440       O  0.42380233  0.89289453  0.19215196    -0.67200
Ni1441     Ni  0.39474575  0.88503504  0.22567570     1.26300
O1442       O  0.40221059  0.85427972  0.29403116    -0.67500
O1443       O  0.36522995  0.86871999  0.18880657    -0.79800
C1444       C  0.37082285  0.94705636  0.25737745     0.83700
O1445       O  0.37950344  0.92671388  0.22953205    -0.66900
Ni1446     Ni  0.42606548  0.81725442  0.18219803     1.27400
Ni1447     Ni  0.43616023  0.85659068  0.26311786     1.26100
H1448       H  0.44396083  0.90633095  0.25194331     0.38200
C1449       C  0.33773787  0.52795455  0.25905852    -0.02700
C1450       C  0.64027126  0.52017093  0.24703257     0.07000
C1451       C  0.63042360  0.48827844  0.23853433    -0.02800
C1452       C  0.65116930  0.96431861  0.24207020    -0.02800
C1453       C  0.34852018  0.97219997  0.25459819     0.07100
C1454       C  0.35824468  0.00416980  0.26337020    -0.03000
Br1455     Br  0.40026109  0.01522389  0.27986319    -0.01500
Br1456     Br  0.35273716  0.57081809  0.26715129    -0.01600
Br1457     Br  0.63719358  0.92082855  0.23070788    -0.01600
Br1458     Br  0.58821563  0.47771843  0.22268139    -0.01500
C1459       C  0.47370136  0.75090555  0.25828574    -0.02700
C1460       C  0.48392961  0.77325657  0.24132446     0.07000
C1461       C  0.51556481  0.77311495  0.23108153    -0.02800
C1462       C  0.53681665  0.75144991  0.23867119    -0.02800
C1463       C  0.52655724  0.72948386  0.25593764     0.07100
C1464       C  0.49497444  0.72918097  0.26564333    -0.03000
Br1465     Br  0.48052212  0.69788003  0.28762435    -0.01500
Br1466     Br  0.43004488  0.74816703  0.26901904    -0.01600
Br1467     Br  0.58035291  0.75258204  0.22665221    -0.01200
Br1468     Br  0.53039589  0.80274137  0.20710888    -0.01500
C1469       C  0.65031341  0.87819500  0.37439466    -0.02700
C1470       C  0.65637037  0.85373432  0.39007573     0.07000
C1471       C  0.34970567  0.83446630  0.38012705    -0.02800
C1472       C  0.37103365  0.84078000  0.35596116    -0.02800
C1473       C  0.36449624  0.86496755  0.33986777     0.07100
C1474       C  0.66983413  0.88243803  0.34800724    -0.03000
Br1475     Br  0.65744556  0.91201575  0.32256363    -0.01500
Br1476     Br  0.61638338  0.90778296  0.39021892    -0.01600
Br1477     Br  0.41037862  0.81841467  0.34786592    -0.01600
Br1478     Br  0.35820558  0.80124798  0.40172227    -0.01500
C1479       C  0.62647791  0.84427960  0.11165967    -0.02700
C1480       C  0.63616545  0.85825806  0.08558571     0.07000
C1481       C  0.33496923  0.85867697  0.07806266    -0.02800
C1482       C  0.35693656  0.84941780  0.09954954    -0.02800
C1483       C  0.34707947  0.84461684  0.13133403     0.07100
C1484       C  0.64846445  0.83966217  0.13607823    -0.03000
Br1485     Br  0.63529589  0.82474082  0.17478134    -0.01500
Br1486     Br  0.58423698  0.82948909  0.11290402    -0.01600
Br1487     Br  0.39951935  0.84087573  0.08397027    -0.01600
Br1488     Br  0.34879699  0.87047958  0.03750901    -0.01500
C1489       C  0.48739574  0.90447274  0.38807140    -0.02700
C1490       C  0.49372417  0.89320908  0.35182061     0.07000
C1491       C  0.52138676  0.87571246  0.34075541    -0.02800
C1492       C  0.54083533  0.86716954  0.36501621    -0.02800
C1493       C  0.53483649  0.87888535  0.40114361     0.07100
C1494       C  0.50830253  0.89793206  0.41265417    -0.03000
Br1495     Br  0.49903711  0.91213318  0.46191872    -0.01500
Br1496     Br  0.44875138  0.92608413  0.40420794    -0.01600
Br1497     Br  0.57451056  0.83742968  0.34805298    -0.01600
Br1498     Br  0.53337491  0.86387062  0.29220740    -0.01500
C1499       C  0.47931961  0.90844423  0.10413980    -0.02700
C1500       C  0.51164206  0.90517965  0.10927779     0.07000
C1501       C  0.52221377  0.90195299  0.14165132    -0.02800
C1502       C  0.50076053  0.89487847  0.16494566    -0.02800
C1503       C  0.46861905  0.89413650  0.15760620     0.07100
C1504       C  0.45795526  0.90513212  0.12967770    -0.03000
Br1505     Br  0.41495667  0.91758883  0.12761508    -0.01500
Br1506     Br  0.46434147  0.91772688  0.06251853    -0.01600
Br1507     Br  0.51504362  0.88724391  0.20766048    -0.01600
Br1508     Br  0.56577107  0.90653160  0.15427922    -0.01500
C1509       C  0.65274903  0.61490095  0.37295961    -0.02700
C1510       C  0.65758305  0.63995358  0.35798804     0.07000
C1511       C  0.35025500  0.66002112  0.36755549    -0.02800
C1512       C  0.37259753  0.65384028  0.39062495    -0.02800
C1513       C  0.36777420  0.62864531  0.40557972     0.07100
C1514       C  0.67369013  0.61022055  0.39788416    -0.03000
Br1515     Br  0.66336689  0.57973131  0.42280634    -0.01500
Br1516     Br  0.61756405  0.58645083  0.35939544    -0.01600
Br1517     Br  0.41053223  0.67859202  0.39945235    -0.01600
Br1518     Br  0.35613336  0.69462983  0.34734678    -0.01500
C1519       C  0.62421396  0.65039181  0.13943431    -0.02700
C1520       C  0.63130802  0.62597874  0.15508286     0.07000
C1521       C  0.32607207  0.60873953  0.14682439    -0.02800
C1522       C  0.34614165  0.61476497  0.12193094    -0.02800
C1523       C  0.33969128  0.63989237  0.10741811     0.07100
C1524       C  0.64527338  0.65739011  0.11574142    -0.03000
Br1525     Br  0.63476457  0.68849013  0.09172458    -0.01500
Br1526     Br  0.58486927  0.67293308  0.14795745    -0.01600
Br1527     Br  0.38129638  0.58674403  0.10637580    -0.01600
Br1528     Br  0.33813927  0.57747679  0.17028293    -0.01500
C1529       C  0.52404832  0.62629756  0.41383897    -0.02700
C1530       C  0.49669387  0.60839261  0.40327532     0.07000
C1531       C  0.48929561  0.59672359  0.36732543    -0.02800
C1532       C  0.50881074  0.60382961  0.34229453    -0.02800
C1533       C  0.53522359  0.62311146  0.35317222     0.07100
C1534       C  0.54271466  0.63448733  0.38897963    -0.03000
Br1535     Br  0.57789718  0.66244327  0.40450879    -0.01500
Br1536     Br  0.53621857  0.63938802  0.46246448    -0.01600
Br1537     Br  0.49767622  0.58984782  0.29346186    -0.01600
Br1538     Br  0.45103004  0.57360097  0.35208731    -0.01500
C1539       C  0.49059497  0.60761860  0.09018928    -0.02700
C1540       C  0.46257232  0.62374242  0.10225817     0.07000
C1541       C  0.45492966  0.63174579  0.13801177    -0.02800
C1542       C  0.47451038  0.62226066  0.16134607    -0.02800
C1543       C  0.50337034  0.60771255  0.14978932     0.07100
C1544       C  0.51151992  0.60051196  0.11411066    -0.03000
Br1545     Br  0.55246195  0.58410189  0.09832051    -0.01500
Br1546     Br  0.50151649  0.59765878  0.04145410    -0.01600
Br1547     Br  0.46159614  0.62891464  0.20921069    -0.01600
Br1548     Br  0.41886157  0.65768434  0.15585004    -0.01500
C1549       C  0.36618384  0.49388355  0.48593922    -0.02700
C1550       C  0.35511598  0.52533947  0.49450594     0.07000
C1551       C  0.65744328  0.53146590  0.00536699    -0.02800
C1552       C  0.63777435  0.00676130  0.00852397    -0.02800
C1553       C  0.64871321  0.97518692  0.99913587     0.07100
C1554       C  0.34629160  0.96911035  0.48834816    -0.03000
Br1555     Br  0.36184433  0.92614191  0.47657028    -0.01500
Br1556     Br  0.40920830  0.48519675  0.47251686    -0.01600
Br1557     Br  0.59542794  0.01586215  0.02481124    -0.01600
Br1558     Br  0.64145436  0.57421849  0.01604357    -0.01500
C1559       C  0.48624010  0.77688747  0.48596362    -0.02700
C1560       C  0.51742398  0.77596172  0.49707554     0.07000
C1561       C  0.52603622  0.75394676  0.01609279    -0.02800
C1562       C  0.50389570  0.73267441  0.02269299    -0.02800
C1563       C  0.47291758  0.73269249  0.01044441     0.07100
C1564       C  0.46407536  0.75545360  0.49221656    -0.03000
Br1565     Br  0.42116923  0.75769124  0.47833286    -0.01500
Br1566     Br  0.47374191  0.80837031  0.46324655    -0.01600
Br1567     Br  0.51632816  0.70282364  0.04764214    -0.01600
Br1568     Br  0.56879582  0.75263651  0.03092652    -0.01500
O1569       O  0.38530846  0.55198224  0.96169505    -0.81700
O1570       O  0.44186448  0.68716979  0.98765979    -0.66400
O1571       O  0.42856134  0.60210470  0.98950818    -1.13000
C1572       C  0.36075955  0.64659828  0.58137783     1.05200
O1573       O  0.44290944  0.70872894  0.54502468    -0.79600
O1574       O  0.44216856  0.66396511  0.57923529    -0.67200
Ni1575     Ni  0.42357756  0.56808360  0.94749937     1.34900
C1576       C  0.44206229  0.63489296  0.57834586     0.83900
O1577       O  0.46643503  0.63260184  0.95227724    -0.80200
O1578       O  0.46117665  0.57992317  0.92857686    -0.90400
C1579       C  0.45063792  0.70894871  0.51426366     0.83500
O1580       O  0.39922197  0.59093861  0.92294825    -0.68600
O1581       O  0.37902882  0.67056963  0.58896514    -0.87900
C1582       C  0.39206991  0.62000044  0.92847091     0.84300
C1583       C  0.47400928  0.60645454  0.93039230     1.05900
H1584       H  0.38447215  0.66330915  0.51116472     0.37700
O1585       O  0.40263883  0.65601618  0.52106362    -1.10600
O1586       O  0.42367779  0.61434436  0.55916981    -0.67200
Ni1587     Ni  0.39480253  0.61352434  0.52143446     1.26300
O1588       O  0.40391786  0.64226662  0.95259552    -0.67500
O1589       O  0.36132571  0.62510282  0.55268379    -0.79800
C1590       C  0.37654258  0.55037757  0.99149696     0.83700
O1591       O  0.38618200  0.57069850  0.51985191    -0.66900
Ni1592     Ni  0.41064902  0.68760454  0.56433234     1.27400
Ni1593     Ni  0.43513961  0.64436088  0.98730601     1.26100
H1594       H  0.44637209  0.59635177  0.00130649     0.38200
O1595       O  0.55073007  0.79562692  0.96191355    -0.81700
O1596       O  0.61767464  0.92897259  0.97913758    -0.66400
O1597       O  0.59305756  0.84687588  0.98364731    -1.13000
C1598       C  0.53560549  0.90201893  0.58155482     1.05200
O1599       O  0.62424679  0.94956713  0.53698043    -0.79600
O1600       O  0.62028521  0.90143964  0.56716127    -0.67200
Ni1601     Ni  0.58285180  0.81499248  0.94069208     1.34900
C1602       C  0.61477141  0.87303612  0.56726290     0.83900
O1603       O  0.63694539  0.87203803  0.94707460    -0.80200
O1604       O  0.61404826  0.82892498  0.91284818    -0.90400
C1605       C  0.62862204  0.95044727  0.50575881     0.83500
O1606       O  0.55218293  0.84037569  0.92707468    -0.68600
O1607       O  0.55955225  0.91996830  0.58731617    -0.87900
C1608       C  0.55459103  0.86901228  0.92646686     0.84300
C1609       C  0.63451177  0.85080681  0.91836760     1.05900
H1610       H  0.55891317  0.91457059  0.50819392     0.37700
O1611       O  0.57559947  0.90396089  0.51651478    -1.10600
O1612       O  0.59041456  0.85817102  0.55352162    -0.67200
Ni1613     Ni  0.56176010  0.86320139  0.51803731     1.26300
O1614       O  0.57481576  0.88844659  0.94437515    -0.67500
O1615       O  0.53098232  0.88092569  0.55265938    -0.79800
C1616       C  0.53966665  0.79923822  0.99236437     0.83700
O1617       O  0.54705822  0.82246264  0.51797733    -0.66900
Ni1618     Ni  0.59144422  0.93200173  0.55926930     1.27400
Ni1619     Ni  0.60546309  0.88780533  0.98057393     1.26100
H1620       H  0.61000161  0.83836511  0.99426748     0.38200
O1621       O  0.55421567  0.70389443  0.79391003    -0.81700
O1622       O  0.60928593  0.56552039  0.76941852    -0.66400
O1623       O  0.59548327  0.65132471  0.77023274    -1.13000
C1624       C  0.52702068  0.60579602  0.67604872     1.05200
O1625       O  0.61176052  0.54672117  0.71179036    -0.79600
O1626       O  0.60370601  0.58840670  0.67368718    -0.67200
Ni1627     Ni  0.58746138  0.68367528  0.81300356     1.34900
C1628       C  0.60851299  0.61781827  0.67819494     0.83900
O1629       O  0.63456430  0.61957202  0.80366718    -0.80200
O1630       O  0.61990768  0.66769641  0.83719056    -0.90400
C1631       C  0.61915179  0.54530242  0.74222423     0.83500
O1632       O  0.55715726  0.66053803  0.83026817    -0.68600
O1633       O  0.54119593  0.57947447  0.67220748    -0.87900
C1634       C  0.55625650  0.63131754  0.82875442     0.84300
C1635       C  0.63667202  0.64267791  0.83098763     1.05900
H1636       H  0.55089441  0.59273624  0.74787079     0.37700
O1637       O  0.56927605  0.59863649  0.73727160    -1.10600
O1638       O  0.59479540  0.63962308  0.70114641    -0.67200
Ni1639     Ni  0.56367515  0.64136902  0.73571645     1.26300
O1640       O  0.57259637  0.60997688  0.80778993    -0.67500
O1641       O  0.53256434  0.63080594  0.70059926    -0.79800
C1642       C  0.54822931  0.70509173  0.76305644     0.83700
O1643       O  0.55820696  0.68438660  0.73635796    -0.66900
Ni1644     Ni  0.57605258  0.56540452  0.69461161     1.27400
Ni1645     Ni  0.60204588  0.60862662  0.77080729     1.26100
H1646       H  0.61404122  0.65798489  0.76055307     0.38200
O1647       O  0.38051682  0.94670097  0.78691955    -0.81700
O1648       O  0.44603456  0.81348217  0.76130312    -0.66400
O1649       O  0.42596820  0.89826164  0.76191433    -1.13000
C1650       C  0.37096918  0.84667366  0.65942866     1.05200
O1651       O  0.46063982  0.80132861  0.70582775    -0.79600
O1652       O  0.45443789  0.84930208  0.67565360    -0.67200
Ni1653     Ni  0.41736700  0.93049044  0.80475637     1.34900
C1654       C  0.44832853  0.87795005  0.67698911     0.83900
O1655       O  0.46346368  0.86849459  0.80229995    -0.80200
O1656       O  0.45368107  0.91974330  0.82815072    -0.90400
C1657       C  0.46199588  0.79682581  0.73597652     0.83500
O1658       O  0.39185081  0.90441463  0.82421609    -0.68600
O1659       O  0.39481100  0.82842478  0.65399347    -0.87900
C1660       C  0.38694396  0.87471355  0.81756508     0.84300
C1661       C  0.46856313  0.89411373  0.82600669     1.05900
H1662       H  0.39147852  0.83156739  0.72996450     0.37700
O1663       O  0.40893286  0.84313538  0.72433246    -1.10600
O1664       O  0.42440203  0.89250660  0.69229862    -0.67200
Ni1665     Ni  0.39503840  0.88449783  0.72542888     1.26300
O1666       O  0.40154220  0.85384011  0.79391662    -0.67500
O1667       O  0.36595725  0.86802054  0.68822723    -0.79800
C1668       C  0.37118457  0.94682769  0.75659488     0.83700
O1669       O  0.37977606  0.92614580  0.72896292    -0.66900
Ni1670     Ni  0.42714712  0.81712480  0.68228629     1.27400
Ni1671     Ni  0.43595559  0.85609161  0.76337428     1.26100
H1672       H  0.44401380  0.90587731  0.75230308     0.38200
C1673       C  0.33860601  0.52772715  0.75714780    -0.02700
C1674       C  0.64088793  0.52009162  0.74599957     0.07000
C1675       C  0.63077551  0.48834517  0.73835927    -0.02800
C1676       C  0.65154205  0.96433023  0.74168432    -0.02800
C1677       C  0.34912253  0.97204377  0.75341416     0.07100
C1678       C  0.35914052  0.00389892  0.76135566    -0.03000
Br1679     Br  0.40150444  0.01471446  0.77665888    -0.01500
Br1680     Br  0.35366380  0.57051361  0.76470111    -0.01600
Br1681     Br  0.63732792  0.92096037  0.73104252    -0.01600
Br1682     Br  0.58810852  0.47815919  0.72423484    -0.01500
C1683       C  0.47365855  0.75003693  0.75828219    -0.02700
C1684       C  0.48411448  0.77296406  0.74224768     0.07000
C1685       C  0.51604016  0.77366004  0.73339749    -0.02800
C1686       C  0.53733856  0.75235198  0.74163461    -0.02800
C1687       C  0.52680281  0.72968929  0.75781885     0.07100
C1688       C  0.49496902  0.72861868  0.76621144    -0.03000
Br1689     Br  0.48035700  0.69690679  0.78749402    -0.01500
Br1690     Br  0.42971415  0.74600574  0.76668662    -0.01600
Br1691     Br  0.58129018  0.75502750  0.73223856    -0.01200
Br1692     Br  0.53108836  0.80375801  0.71016524    -0.01500
C1693       C  0.64977453  0.87940192  0.87536760    -0.02700
C1694       C  0.65480818  0.85384446  0.88962888     0.07000
C1695       C  0.34701832  0.83334499  0.87817992    -0.02800
C1696       C  0.36841432  0.83941395  0.85394637    -0.02800
C1697       C  0.36300907  0.86479505  0.83924580     0.07100
C1698       C  0.66923423  0.88361767  0.84889339    -0.03000
Br1699     Br  0.65780166  0.91510499  0.82551332    -0.01500
Br1700     Br  0.61730059  0.91032339  0.89311356    -0.01600
Br1701     Br  0.40639629  0.81483972  0.84407726    -0.01600
Br1702     Br  0.35398737  0.79867417  0.89804435    -0.01500
C1703       C  0.62775234  0.84368599  0.61135357    -0.02700
C1704       C  0.63740078  0.85718303  0.58489900     0.07000
C1705       C  0.33611547  0.85712260  0.57688844    -0.02800
C1706       C  0.35822186  0.84831539  0.59855463    -0.02800
C1707       C  0.34847031  0.84384775  0.63054893     0.07100
C1708       C  0.64988099  0.83893715  0.63552387    -0.03000
Br1709     Br  0.63692939  0.82400873  0.67431182    -0.01500
Br1710     Br  0.58519764  0.83016415  0.61376906    -0.01600
Br1711     Br  0.40089742  0.84033197  0.58312568    -0.01600
Br1712     Br  0.34951131  0.86770350  0.53546371    -0.01500
C1713       C  0.48513438  0.90212748  0.88866498    -0.02700
C1714       C  0.49252898  0.89294054  0.85265274     0.07000
C1715       C  0.52122497  0.87756896  0.84167630    -0.02800
C1716       C  0.54092623  0.86907427  0.86573737    -0.02800
C1717       C  0.53408065  0.87915622  0.90176777     0.07100
C1718       C  0.50633931  0.89611694  0.91323665    -0.03000
Br1719     Br  0.49615167  0.90824933  0.96227923    -0.01500
Br1720     Br  0.44461790  0.91950494  0.90408770    -0.01600
Br1721     Br  0.57556752  0.84085578  0.84836758    -0.01600
Br1722     Br  0.53394830  0.86826201  0.79350855    -0.01500
C1723       C  0.48074767  0.90759872  0.60489253    -0.02700
C1724       C  0.51305222  0.90452891  0.61032694     0.07000
C1725       C  0.52346089  0.90208900  0.64310509    -0.02800
C1726       C  0.50187012  0.89544621  0.66655209    -0.02800
C1727       C  0.46979416  0.89427650  0.65883207     0.07100
C1728       C  0.45926751  0.90468815  0.63047400    -0.03000
Br1729     Br  0.41626577  0.91692397  0.62788078    -0.01500
Br1730     Br  0.46590733  0.91611217  0.56280198    -0.01600
Br1731     Br  0.51579099  0.88910104  0.71000108    -0.01600
Br1732     Br  0.56690970  0.90716952  0.65613642    -0.01500
C1733       C  0.65412645  0.61315851  0.87182738    -0.02700
C1734       C  0.65841330  0.63884728  0.85768678     0.07000
C1735       C  0.35030692  0.65977667  0.86842525    -0.02800
C1736       C  0.37247793  0.65390457  0.89182091    -0.02800
C1737       C  0.36832123  0.62797047  0.90577057     0.07100
C1738       C  0.67484496  0.60870747  0.89705382    -0.03000
Br1739     Br  0.66482348  0.57751138  0.92118362    -0.01500
Br1740     Br  0.61990976  0.58361848  0.85694642    -0.01600
Br1741     Br  0.40921691  0.68035313  0.90259447    -0.01600
Br1742     Br  0.35555714  0.69511986  0.84921927    -0.01500
C1743       C  0.62351263  0.65097596  0.63899798    -0.02700
C1744       C  0.63105162  0.62708595  0.65521942     0.07000
C1745       C  0.32624139  0.61059531  0.64771438    -0.02800
C1746       C  0.34630848  0.61666109  0.62286196    -0.02800
C1747       C  0.33953008  0.64137754  0.60782910     0.07100
C1748       C  0.64471792  0.65835039  0.61561658    -0.03000
Br1749     Br  0.63401967  0.68933163  0.59153472    -0.01500
Br1750     Br  0.58338211  0.67207209  0.64635569    -0.01600
Br1751     Br  0.38187391  0.58908186  0.60795560    -0.01600
Br1752     Br  0.33879680  0.58027673  0.67217587    -0.01500
C1753       C  0.52552040  0.62439785  0.91472674    -0.02700
C1754       C  0.49748370  0.60778437  0.90411515     0.07000
C1755       C  0.48958120  0.59717295  0.86825726    -0.02800
C1756       C  0.50931194  0.60405978  0.84331041    -0.02800
C1757       C  0.53647248  0.62211742  0.85419785     0.07100
C1758       C  0.54458633  0.63226311  0.88993839    -0.03000
Br1759     Br  0.58119747  0.65803485  0.90547912    -0.01500
Br1760     Br  0.53786491  0.63625887  0.96330062    -0.01600
Br1761     Br  0.49764075  0.59135806  0.79461158    -0.01600
Br1762     Br  0.45031852  0.57598512  0.85318219    -0.01500
C1763       C  0.49122916  0.60909356  0.59043745    -0.02700
C1764       C  0.46309720  0.62505566  0.60244302     0.07000
C1765       C  0.45546591  0.63300577  0.63820042    -0.02800
C1766       C  0.47486583  0.62320501  0.66147968    -0.02800
C1767       C  0.50367923  0.60852220  0.64996833     0.07100
C1768       C  0.51201691  0.60169422  0.61435403    -0.03000
Br1769     Br  0.55303201  0.58538191  0.59870819    -0.01500
Br1770     Br  0.50254591  0.59999009  0.54187473    -0.01600
Br1771     Br  0.46174386  0.62963089  0.70922606    -0.01600
Br1772     Br  0.41977826  0.65950262  0.65617617    -0.01500
C1773       C  0.36569547  0.49307515  0.98327595    -0.02700
C1774       C  0.35506673  0.52470226  0.99349558     0.07000
C1775       C  0.65703544  0.53190184  0.50473343    -0.02800
C1776       C  0.63719930  0.00714199  0.50748830    -0.02800
C1777       C  0.64861630  0.97580999  0.49989628     0.07100
C1778       C  0.34581119  0.96827514  0.98562311    -0.03000
Br1779     Br  0.36082194  0.92509076  0.97147884    -0.01500
Br1780     Br  0.40826465  0.48419699  0.96796217    -0.01600
Br1781     Br  0.59404018  0.01574909  0.52066766    -0.01600
Br1782     Br  0.64084058  0.57448773  0.51404969    -0.01500
C1783       C  0.48613799  0.77610355  0.98610272    -0.02700
C1784       C  0.51718994  0.77565491  0.99776409     0.07000
C1785       C  0.52622484  0.75405437  0.51516460    -0.02800
C1786       C  0.50398276  0.73296547  0.52192933    -0.02800
C1787       C  0.47295433  0.73321936  0.50991399     0.07100
C1788       C  0.46407701  0.75457072  0.99227704    -0.03000
Br1789     Br  0.42140635  0.75601924  0.97728938    -0.01500
Br1790     Br  0.47371287  0.80693492  0.96245347    -0.01600
Br1791     Br  0.51626115  0.70334357  0.54722590    -0.01600
Br1792     Br  0.56904878  0.75237433  0.52967246    -0.01500
O1793       O  0.71826456  0.05255197  0.46221693    -0.81700
O1794       O  0.77491144  0.18782881  0.48724020    -0.66400
O1795       O  0.76168938  0.10274203  0.48932986    -1.13000
C1796       C  0.69419635  0.14535037  0.08110685     1.05200
O1797       O  0.77614094  0.20813146  0.04545141    -0.79600
O1798       O  0.77564161  0.16279424  0.07892888    -0.67200
Ni1799     Ni  0.75630434  0.06867916  0.44740042     1.34900
C1800       C  0.77508754  0.13377201  0.07820717     0.83900
O1801       O  0.79919751  0.13312494  0.45168015    -0.80200
O1802       O  0.79364802  0.08050673  0.42787030    -0.90400
C1803       C  0.78403269  0.20834231  0.01472995     0.83500
O1804       O  0.73158477  0.09149032  0.42309229    -0.68600
O1805       O  0.71263801  0.16917579  0.08902645    -0.87900
C1806       C  0.72476409  0.12060805  0.42834602     0.84300
C1807       C  0.80656538  0.10699866  0.42962326     1.05900
H1808       H  0.71800517  0.16280313  0.01120960     0.37700
O1809       O  0.73606862  0.15535410  0.02113256    -1.10600
O1810       O  0.75646737  0.11343690  0.05916229    -0.67200
Ni1811     Ni  0.72804579  0.11282751  0.02116572     1.26300
O1812       O  0.73684307  0.14290557  0.45228043    -0.67500
O1813       O  0.69438665  0.12436460  0.05205271    -0.79800
C1814       C  0.70986105  0.05099848  0.49217359     0.83700
O1815       O  0.71927272  0.07001783  0.01932451    -0.66900
Ni1816     Ni  0.74404357  0.18665230  0.06457696     1.27400
Ni1817     Ni  0.76816478  0.14498638  0.48695029     1.26100
H1818       H  0.77965321  0.09699732  0.50093067     0.38200
O1819       O  0.88418862  0.29632378  0.46134805    -0.81700
O1820       O  0.95034717  0.43001305  0.47976590    -0.66400
O1821       O  0.92718009  0.34725100  0.48363277    -1.13000
C1822       C  0.86746311  0.40285694  0.08051331     1.05200
O1823       O  0.95688600  0.44967097  0.03639178    -0.79600
O1824       O  0.95220181  0.40229709  0.06749817    -0.67200
Ni1825     Ni  0.91750754  0.31489371  0.44084877     1.34900
C1826       C  0.94681948  0.37387909  0.06765294     0.83900
O1827       O  0.96999375  0.37353433  0.44650067    -0.80200
O1828       O  0.94990566  0.32799418  0.41376905    -0.90400
C1829       C  0.96209354  0.44983002  0.00508779     0.83500
O1830       O  0.88770078  0.33990225  0.42529500    -0.68600
O1831       O  0.89127266  0.42098032  0.08626392    -0.87900
C1832       C  0.88872048  0.36897129  0.42602615     0.84300
C1833       C  0.96916195  0.35093209  0.41874522     1.05900
H1834       H  0.89188369  0.41438039  0.00675685     0.37700
O1835       O  0.90835458  0.40393296  0.01565745    -1.10600
O1836       O  0.92263797  0.35878476  0.05362323    -0.67200
Ni1837     Ni  0.89417281  0.36339814  0.01767901     1.26300
O1838       O  0.90764725  0.38909417  0.44527410    -0.67500
O1839       O  0.86310186  0.38152185  0.05177504    -0.79800
C1840       C  0.87344517  0.29945835  0.49184769     0.83700
O1841       O  0.87918437  0.32287363  0.01813912    -0.66900
Ni1842     Ni  0.92362054  0.43252663  0.05842496     1.27400
Ni1843     Ni  0.93890644  0.38848617  0.48076723     1.26100
H1844       H  0.94440280  0.33907209  0.49417070     0.38200
O1845       O  0.88742324  0.20441519  0.29251229    -0.81700
O1846       O  0.94253043  0.06610496  0.27000993    -0.66400
O1847       O  0.92854349  0.15163320  0.26969330    -1.13000
C1848       C  0.86017569  0.10529425  0.17579896     1.05200
O1849       O  0.94437150  0.04624723  0.21242960    -0.79600
O1850       O  0.93705209  0.08763274  0.17392861    -0.67200
Ni1851     Ni  0.92013982  0.18415048  0.31222483     1.34900
C1852       C  0.94195022  0.11697849  0.17811279     0.83900
O1853       O  0.96763004  0.12046082  0.30369685    -0.80200
O1854       O  0.95209747  0.16826080  0.33716098    -0.90400
C1855       C  0.95198473  0.04536911  0.24298021     0.83500
O1856       O  0.88917594  0.16108074  0.32857688    -0.68600
O1857       O  0.87445158  0.07907542  0.17211745    -0.87900
C1858       C  0.88852859  0.13200927  0.32770243     0.84300
C1859       C  0.96927120  0.14354189  0.33108814     1.05900
H1860       H  0.88399845  0.09294765  0.24801224     0.37700
O1861       O  0.90238622  0.09868463  0.23729351    -1.10600
O1862       O  0.92805126  0.13896395  0.20066303    -0.67200
Ni1863     Ni  0.89679062  0.14125639  0.23517445     1.26300
O1864       O  0.90557720  0.11069761  0.30769529    -0.67500
O1865       O  0.86567142  0.13041186  0.20016750    -0.79800
C1866       C  0.88135090  0.20507336  0.26151096     0.83700
O1867       O  0.89132533  0.18407583  0.23507132    -0.66900
Ni1868     Ni  0.90902303  0.06505976  0.19490924     1.27400
Ni1869     Ni  0.93516984  0.10906955  0.27079026     1.26100
H1870       H  0.94709804  0.15830027  0.26001436     0.38200
O1871       O  0.71375967  0.44674111  0.28755620    -0.81700
O1872       O  0.77959551  0.31403186  0.26095767    -0.66400
O1873       O  0.75937578  0.39872589  0.26178551    -1.13000
C1874       C  0.70297658  0.34705632  0.16009879     1.05200
O1875       O  0.79346854  0.30180327  0.20526173    -0.79600
O1876       O  0.78631820  0.34912800  0.17419415    -0.67200
Ni1877     Ni  0.75118150  0.43090461  0.30476711     1.34900
C1878       C  0.78052477  0.37794401  0.17596610     0.83900
O1879       O  0.79728889  0.36896404  0.30182529    -0.80200
O1880       O  0.78812848  0.42034588  0.32744778    -0.90400
C1881       C  0.79519753  0.29728911  0.23538894     0.83500
O1882       O  0.72622080  0.40481062  0.32483557    -0.68600
O1883       O  0.72642313  0.32828464  0.15451288    -0.87900
C1884       C  0.72134852  0.37509172  0.31805982     0.84300
C1885       C  0.80283998  0.39460363  0.32534558     1.05900
H1886       H  0.72457537  0.33227210  0.23046831     0.37700
O1887       O  0.74198303  0.34367320  0.22446014    -1.10600
O1888       O  0.75713362  0.39289542  0.19215236    -0.67200
Ni1889     Ni  0.72807734  0.38503583  0.22567625     1.26300
O1890       O  0.73554308  0.35428020  0.29403165    -0.67500
O1891       O  0.69856128  0.36872050  0.18880708    -0.79800
C1892       C  0.70415540  0.44705805  0.25737783     0.83700
O1893       O  0.71283496  0.42671469  0.22953256    -0.66900
Ni1894     Ni  0.75939702  0.31725485  0.18219858     1.27400
Ni1895     Ni  0.76949245  0.35659149  0.26311802     1.26100
H1896       H  0.77729241  0.40633214  0.25194390     0.38200
C1897       C  0.67106929  0.02795205  0.25905824    -0.02700
C1898       C  0.97360452  0.02017228  0.24703673     0.07000
C1899       C  0.96375761  0.98827946  0.23853775    -0.02800
C1900       C  0.98450157  0.46431768  0.24207275    -0.02800
C1901       C  0.68185304  0.47220193  0.25459845     0.07100
C1902       C  0.69157726  0.50417193  0.26337173    -0.03000
Br1903     Br  0.73359345  0.51522609  0.27986554    -0.01500
Br1904     Br  0.68606872  0.07081565  0.26715207    -0.01600
Br1905     Br  0.97052473  0.42082816  0.23071359    -0.01600
Br1906     Br  0.92154989  0.97771858  0.22268457    -0.01500
C1907       C  0.80703405  0.25090656  0.25828544    -0.02700
C1908       C  0.81726243  0.27325754  0.24132418     0.07000
C1909       C  0.84889775  0.27311594  0.23108165    -0.02800
C1910       C  0.87014948  0.25145081  0.23867150    -0.02800
C1911       C  0.85988998  0.22948506  0.25593835     0.07100
C1912       C  0.82830714  0.22918250  0.26564407    -0.03000
Br1913     Br  0.81385482  0.19788305  0.28762720    -0.01500
Br1914     Br  0.76337729  0.24816714  0.26901698    -0.01600
Br1915     Br  0.91368579  0.25258267  0.22665263    -0.01200
Br1916     Br  0.86372909  0.30274271  0.20710956    -0.01500
C1917       C  0.98364857  0.37819757  0.37439679    -0.02700
C1918       C  0.98970459  0.35373619  0.39007706     0.07000
C1919       C  0.68303643  0.33446314  0.38012380    -0.02800
C1920       C  0.70436410  0.34077755  0.35595798    -0.02800
C1921       C  0.69782736  0.36496706  0.33986710     0.07100
C1922       C  0.00316968  0.38244055  0.34800967    -0.03000
Br1923     Br  0.99078196  0.41201905  0.32256672    -0.01500
Br1924     Br  0.94971902  0.40778615  0.39022139    -0.01600
Br1925     Br  0.74370787  0.31841014  0.34785965    -0.01600
Br1926     Br  0.69153564  0.30124235  0.40171563    -0.01500
C1927       C  0.95981038  0.34428034  0.11166208    -0.02700
C1928       C  0.96949804  0.35825827  0.08558776     0.07000
C1929       C  0.66830026  0.35867451  0.07806248    -0.02800
C1930       C  0.69026735  0.34941584  0.09954992    -0.02800
C1931       C  0.68041007  0.34461593  0.13133484     0.07100
C1932       C  0.98179692  0.33966278  0.13608055    -0.03000
Br1933     Br  0.96862811  0.32474239  0.17478427    -0.01500
Br1934     Br  0.91756910  0.32949103  0.11290721    -0.01600
Br1935     Br  0.73284992  0.34087231  0.08397049    -0.01600
Br1936     Br  0.68212827  0.37047541  0.03750786    -0.01500
C1937       C  0.82072645  0.40447025  0.38807224    -0.02700
C1938       C  0.82705572  0.39320897  0.35182149     0.07000
C1939       C  0.85471958  0.37571477  0.34075598    -0.02800
C1940       C  0.87416882  0.36717195  0.36501632    -0.02800
C1941       C  0.86816940  0.37888594  0.40114374     0.07100
C1942       C  0.84163415  0.39793048  0.41265471    -0.03000
Br1943     Br  0.83236868  0.41213012  0.46191932    -0.01500
Br1944     Br  0.78207951  0.42607603  0.40420876    -0.01600
Br1945     Br  0.90784564  0.33743436  0.34805236    -0.01600
Br1946     Br  0.86670834  0.36387593  0.29220820    -0.01500
C1947       C  0.81265084  0.40844182  0.10413758    -0.02700
C1948       C  0.84497328  0.40517867  0.10927702     0.07000
C1949       C  0.85554441  0.40195418  0.14165170    -0.02800
C1950       C  0.83409082  0.39488055  0.16494624    -0.02800
C1951       C  0.80194957  0.39413706  0.15760551     0.07100
C1952       C  0.79128606  0.40513053  0.12967544    -0.03000
Br1953     Br  0.74828731  0.41758596  0.12761105    -0.01500
Br1954     Br  0.79767322  0.41772133  0.06251439    -0.01600
Br1955     Br  0.84837300  0.38724911  0.20766295    -0.01600
Br1956     Br  0.89910142  0.40653410  0.15428072    -0.01500
C1957       C  0.98607934  0.11490538  0.37296547    -0.02700
C1958       C  0.99091428  0.13995643  0.35799178     0.07000
C1959       C  0.68358625  0.16001941  0.36755621    -0.02800
C1960       C  0.70592930  0.15383868  0.39062521    -0.02800
C1961       C  0.70110739  0.12864262  0.40557869     0.07100
C1962       C  0.00702137  0.11022459  0.39788888    -0.03000
Br1963     Br  0.99669812  0.07973737  0.42281362    -0.01500
Br1964     Br  0.95089247  0.08645737  0.35940480    -0.01600
Br1965     Br  0.74386288  0.17859221  0.39945353    -0.01600
Br1966     Br  0.68946226  0.19463026  0.34735029    -0.01500
C1967       C  0.95754603  0.15039138  0.13943642    -0.02700
C1968       C  0.96464039  0.12597827  0.15508480     0.07000
C1969       C  0.65940596  0.10874024  0.14682645    -0.02800
C1970       C  0.67947558  0.11476548  0.12193287    -0.02800
C1971       C  0.67302513  0.13989254  0.10741958     0.07100
C1972       C  0.97860564  0.15739057  0.11574427    -0.03000
Br1973     Br  0.96809665  0.18849101  0.09172805    -0.01500
Br1974     Br  0.91820038  0.17293103  0.14795824    -0.01600
Br1975     Br  0.71463060  0.08674482  0.10637818    -0.01600
Br1976     Br  0.67147345  0.07747826  0.17028584    -0.01500
C1977       C  0.85738105  0.12629678  0.41384028    -0.02700
C1978       C  0.83002719  0.10839103  0.40327650     0.07000
C1979       C  0.82262885  0.09672205  0.36732666    -0.02800
C1980       C  0.84214349  0.10382892  0.34229591    -0.02800
C1981       C  0.86855520  0.12311248  0.35317390     0.07100
C1982       C  0.87604593  0.13448877  0.38898135    -0.03000
Br1983     Br  0.91122535  0.16244881  0.40451137    -0.01500
Br1984     Br  0.86955247  0.13938491  0.46246542    -0.01600
Br1985     Br  0.83100960  0.08984600  0.29346313    -0.01600
Br1986     Br  0.78436387  0.07359830  0.35208857    -0.01500
C1987       C  0.82392818  0.10761723  0.09019093    -0.02700
C1988       C  0.79590604  0.12374232  0.10225943     0.07000
C1989       C  0.78826376  0.13174750  0.13801323    -0.02800
C1990       C  0.80784419  0.12226289  0.16134814    -0.02800
C1991       C  0.83670364  0.10771334  0.14979167     0.07100
C1992       C  0.84485308  0.10051135  0.11411286    -0.03000
Br1993     Br  0.88579514  0.08410095  0.09832323    -0.01500
Br1994     Br  0.83484911  0.09765448  0.04145540    -0.01600
Br1995     Br  0.79493030  0.12891988  0.20921336    -0.01600
Br1996     Br  0.75219631  0.15768739  0.15585076    -0.01500
C1997       C  0.69951751  0.99388417  0.48594195    -0.02700
C1998       C  0.68844939  0.02533996  0.49450759     0.07000
C1999       C  0.99077736  0.03146757  0.00537039    -0.02800
C2000       C  0.97110671  0.50676073  0.00852559    -0.02800
C2001       C  0.98204554  0.47518634  0.99913758     0.07100
C2002       C  0.67962473  0.46910770  0.48834184    -0.03000
Br2003     Br  0.69517595  0.42613850  0.47655844    -0.01500
Br2004     Br  0.74254247  0.98519752  0.47252165    -0.01600
Br2005     Br  0.92876054  0.51586182  0.02481358    -0.01600
Br2006     Br  0.97478795  0.07422012  0.01604961    -0.01500
C2007       C  0.81957361  0.27688821  0.48596391    -0.02700
C2008       C  0.85075790  0.27596057  0.49707382     0.07000
C2009       C  0.85937010  0.25394461  0.01609140    -0.02800
C2010       C  0.83722933  0.23267293  0.02269236    -0.02800
C2011       C  0.80625076  0.23269260  0.01044570     0.07100
C2012       C  0.79740833  0.25545504  0.49221728    -0.03000
Br2013     Br  0.75450147  0.25769609  0.47833782    -0.01500
Br2014     Br  0.80707568  0.30837282  0.46324920    -0.01600
Br2015     Br  0.84966166  0.20282156  0.04764080    -0.01600
Br2016     Br  0.90213034  0.25263197  0.03092204    -0.01500
O2017       O  0.71864104  0.05198389  0.96169496    -0.81700
O2018       O  0.77519762  0.18717025  0.98766072    -0.66400
O2019       O  0.76189500  0.10210507  0.98950853    -1.13000
C2020       C  0.69409278  0.14659894  0.58137820     1.05200
O2021       O  0.77624120  0.20873021  0.54502349    -0.79600
O2022       O  0.77550257  0.16396628  0.57923364    -0.67200
Ni2023     Ni  0.75691097  0.06808424  0.94749964     1.34900
C2024       C  0.77539605  0.13489441  0.57834531     0.83900
O2025       O  0.79976818  0.13260224  0.95227711    -0.80200
O2026       O  0.79451080  0.07992325  0.92857785    -0.90400
C2027       C  0.78397035  0.20894908  0.51426238     0.83500
O2028       O  0.73255653  0.09093965  0.92294796    -0.68600
O2029       O  0.71236264  0.17056984  0.58896567    -0.87900
C2030       C  0.72540403  0.12000144  0.92847120     0.84300
C2031       C  0.80734300  0.10645474  0.93039268     1.05900
H2032       H  0.71780489  0.16330957  0.51116421     0.37700
O2033       O  0.73597158  0.15601670  0.52106335    -1.10600
O2034       O  0.75701058  0.11434587  0.55917076    -0.67200
Ni2035     Ni  0.72813538  0.11352506  0.52143502     1.26300
O2036       O  0.73725111  0.14226744  0.95259660    -0.67500
O2037       O  0.69465824  0.12510403  0.55268376    -0.79800
C2038       C  0.70987539  0.05037861  0.99149676     0.83700
O2039       O  0.71951498  0.07069937  0.51985336    -0.66900
Ni2040     Ni  0.74398185  0.18760526  0.56433192     1.27400
Ni2041     Ni  0.76847308  0.14436125  0.98730657     1.26100
H2042       H  0.77970564  0.09635221  0.00130636     0.38200
O2043       O  0.88406280  0.29562630  0.96191366    -0.81700
O2044       O  0.95100682  0.42897226  0.97913861    -0.66400
O2045       O  0.92639082  0.34687500  0.98364753    -1.13000
C2046       C  0.86893815  0.40201640  0.58155409     1.05200
O2047       O  0.95757724  0.44956856  0.53698132    -0.79600
O2048       O  0.95361826  0.40143887  0.56715945    -0.67200
Ni2049     Ni  0.91618506  0.31499147  0.94069241     1.34900
C2050       C  0.94810463  0.37303536  0.56726126     0.83900
O2051       O  0.97027797  0.37203791  0.94707452    -0.80200
O2052       O  0.94738196  0.32892362  0.91284888    -0.90400
C2053       C  0.96195305  0.45044849  0.50575974     0.83500
O2054       O  0.88551659  0.34037456  0.92707397    -0.68600
O2055       O  0.89288511  0.41996545  0.58731611    -0.87900
C2056       C  0.88792432  0.36901132  0.92646658     0.84300
C2057       C  0.96784485  0.35080601  0.91836789     1.05900
H2058       H  0.89224540  0.41456995  0.50819379     0.37700
O2059       O  0.90893157  0.40396052  0.51651452    -1.10600
O2060       O  0.92374740  0.35817047  0.55352093    -0.67200
Ni2061     Ni  0.89509304  0.36320051  0.51803645     1.26300
O2062       O  0.90814842  0.38844590  0.94437565    -0.67500
O2063       O  0.86431484  0.38092396  0.55265814    -0.79800
C2064       C  0.87300026  0.29923710  0.99236478     0.83700
O2065       O  0.88039214  0.32246134  0.51797610    -0.66900
Ni2066     Ni  0.92477599  0.43200089  0.55926956     1.27400
Ni2067     Ni  0.93879580  0.38780468  0.98057435     1.26100
H2068       H  0.94333527  0.33836432  0.99426772     0.38200
O2069       O  0.88754888  0.20389507  0.79391013    -0.81700
O2070       O  0.94262027  0.06552161  0.76941782    -0.66400
O2071       O  0.92881738  0.15132620  0.77023331    -1.13000
C2072       C  0.86035569  0.10579802  0.67604776     1.05200
O2073       O  0.94509602  0.04672393  0.71178954    -0.79600
O2074       O  0.93703961  0.08840900  0.67368584    -0.67200
Ni2075     Ni  0.92079470  0.18367646  0.81300401     1.34900
C2076       C  0.94184717  0.11782055  0.67819428     0.83900
O2077       O  0.96789788  0.11957328  0.80366835    -0.80200
O2078       O  0.95324106  0.16769796  0.83719109    -0.90400
C2079       C  0.95248689  0.04530444  0.74222330     0.83500
O2080       O  0.89049081  0.16053870  0.83026839    -0.68600
O2081       O  0.87453005  0.07947603  0.67220710    -0.87900
C2082       C  0.88959009  0.13131814  0.82875437     0.84300
C2083       C  0.97000539  0.14267950  0.83098861     1.05900
H2084       H  0.88422876  0.09273802  0.74786983     0.37700
O2085       O  0.90261065  0.09863824  0.73727100    -1.10600
O2086       O  0.92813082  0.13962535  0.70114692    -0.67200
Ni2087     Ni  0.89701002  0.14137083  0.73571614     1.26300
O2088       O  0.90592992  0.10997763  0.80778954    -0.67500
O2089       O  0.86590001  0.13080807  0.70059792    -0.79800
C2090       C  0.88156353  0.20509301  0.76305655     0.83700
O2091       O  0.89154219  0.18438851  0.73635816    -0.66900
Ni2092     Ni  0.90938728  0.06540647  0.69461096     1.27400
Ni2093     Ni  0.93538000  0.10862803  0.77080747     1.26100
H2094       H  0.94737563  0.15798661  0.76055417     0.38200
O2095       O  0.71385142  0.44670233  0.78691895    -0.81700
O2096       O  0.77936902  0.31348281  0.76130293    -0.66400
O2097       O  0.75930191  0.39826197  0.76191337    -1.13000
C2098       C  0.70430103  0.34667310  0.65942939     1.05200
O2099       O  0.79397229  0.30132781  0.70582684    -0.79600
O2100       O  0.78776980  0.34930120  0.67565302    -0.67200
Ni2101     Ni  0.75070148  0.43049112  0.80475550     1.34900
C2102       C  0.78166036  0.37794905  0.67698815     0.83900
O2103       O  0.79679916  0.36849538  0.80229812    -0.80200
O2104       O  0.78701547  0.41974363  0.82814989    -0.90400
C2105       C  0.79532940  0.29682580  0.73597589     0.83500
O2106       O  0.72518512  0.40441569  0.82421556    -0.68600
O2107       O  0.72814283  0.32842426  0.65399396    -0.87900
C2108       C  0.72027890  0.37471455  0.81756541     0.84300
C2109       C  0.80189810  0.39411427  0.82600537     1.05900
H2110       H  0.72481191  0.33156747  0.72996574     0.37700
O2111       O  0.74226594  0.34313531  0.72433282    -1.10600
O2112       O  0.75773390  0.39250576  0.69229754    -0.67200
Ni2113     Ni  0.72837113  0.38449760  0.72542891     1.26300
O2114       O  0.73487748  0.35384100  0.79391739    -0.67500
O2115       O  0.69928921  0.36801982  0.68822812    -0.79800
C2116       C  0.70451776  0.44682803  0.75659440     0.83700
O2117       O  0.71310834  0.42614541  0.72896255    -0.66900
Ni2118     Ni  0.76047919  0.31712418  0.68228625     1.27400
Ni2119     Ni  0.76928983  0.35609207  0.76337360     1.26100
H2120       H  0.77734696  0.40587751  0.75230153     0.38200
C2121       C  0.67194241  0.02772775  0.75714902    -0.02700
C2122       C  0.97422307  0.02009348  0.74599827     0.07000
C2123       C  0.96410993  0.98834738  0.73835962    -0.02800
C2124       C  0.98487397  0.46432818  0.74168169    -0.02800
C2125       C  0.68245515  0.47204385  0.75341372     0.07100
C2126       C  0.69247266  0.50389914  0.76135472    -0.03000
Br2127     Br  0.73483670  0.51471537  0.77665685    -0.01500
Br2128     Br  0.68700022  0.07051416  0.76470214    -0.01600
Br2129     Br  0.97066016  0.42095813  0.73103801    -0.01600
Br2130     Br  0.92144229  0.97816219  0.72423740    -0.01500
C2131       C  0.80699254  0.25003758  0.75828227    -0.02700
C2132       C  0.81744811  0.27296414  0.74224681     0.07000
C2133       C  0.84937355  0.27365980  0.73339565    -0.02800
C2134       C  0.87067220  0.25235209  0.74163298    -0.02800
C2135       C  0.86013690  0.22969028  0.75781871     0.07100
C2136       C  0.82830329  0.22861999  0.76621222    -0.03000
Br2137     Br  0.81369179  0.19690938  0.78749697    -0.01500
Br2138     Br  0.76304819  0.24600605  0.76668668    -0.01600
Br2139     Br  0.91462356  0.25502709  0.73223530    -0.01200
Br2140     Br  0.86442106  0.30375683  0.71016177    -0.01500
C2141       C  0.98310681  0.37940050  0.87536702    -0.02700
C2142       C  0.98814092  0.35384341  0.88962880     0.07000
C2143       C  0.68035340  0.33334522  0.87817976    -0.02800
C2144       C  0.70174970  0.33941488  0.85394687    -0.02800
C2145       C  0.69634423  0.36479600  0.83924637     0.07100
C2146       C  0.00256551  0.38361526  0.84889155    -0.03000
Br2147     Br  0.99113163  0.41510068  0.82550949    -0.01500
Br2148     Br  0.95063365  0.41032268  0.89311373    -0.01600
Br2149     Br  0.73973225  0.31484149  0.84407856    -0.01600
Br2150     Br  0.68732280  0.29867442  0.89804414    -0.01500
C2151       C  0.96108663  0.34368507  0.61135140    -0.02700
C2152       C  0.97073445  0.35718212  0.58489665     0.07000
C2153       C  0.66944810  0.35712327  0.57688949    -0.02800
C2154       C  0.69155413  0.34831516  0.59855541    -0.02800
C2155       C  0.68180229  0.34384754  0.63054963     0.07100
C2156       C  0.98321561  0.33893727  0.63552185    -0.03000
Br2157     Br  0.97026458  0.32401008  0.67431087    -0.01500
Br2158     Br  0.91853271  0.33016067  0.61376611    -0.01600
Br2159     Br  0.73422939  0.34032988  0.58312589    -0.01600
Br2160     Br  0.68284470  0.36770503  0.53546547    -0.01500
C2161       C  0.81846849  0.40212726  0.88866388    -0.02700
C2162       C  0.82586367  0.39294087  0.85265176     0.07000
C2163       C  0.85455975  0.37756927  0.84167571    -0.02800
C2164       C  0.87426027  0.36907372  0.86573689    -0.02800
C2165       C  0.86741422  0.37915531  0.90176720     0.07100
C2166       C  0.83967298  0.39611633  0.91323576    -0.03000
Br2167     Br  0.82948486  0.40824874  0.96227822    -0.01500
Br2168     Br  0.77795181  0.41950449  0.90408616    -0.01600
Br2169     Br  0.90890118  0.34085464  0.84836731    -0.01600
Br2170     Br  0.86728432  0.36826365  0.79350844    -0.01500
C2171       C  0.81408033  0.40759656  0.60489131    -0.02700
C2172       C  0.84638474  0.40452604  0.61032588     0.07000
C2173       C  0.85679315  0.40208594  0.64310406    -0.02800
C2174       C  0.83520200  0.39544434  0.66655132    -0.02800
C2175       C  0.80312613  0.39427518  0.65883110     0.07100
C2176       C  0.79259988  0.40468646  0.63047267    -0.03000
Br2177     Br  0.74959825  0.41692232  0.62787870    -0.01500
Br2178     Br  0.79924061  0.41611044  0.56280073    -0.01600
Br2179     Br  0.84912220  0.38909994  0.71000095    -0.01600
Br2180     Br  0.90024211  0.40716427  0.65613506    -0.01500
C2181       C  0.98745884  0.11316171  0.87183029    -0.02700
C2182       C  0.99174633  0.13884953  0.85768836     0.07000
C2183       C  0.68364193  0.15977702  0.86842462    -0.02800
C2184       C  0.70581272  0.15390528  0.89182068    -0.02800
C2185       C  0.70165570  0.12797150  0.90577074     0.07100
C2186       C  0.00817678  0.10871163  0.89705774    -0.03000
Br2187     Br  0.99815492  0.07751644  0.92118861    -0.01500
Br2188     Br  0.95324208  0.08362174  0.85694973    -0.01600
Br2189     Br  0.74255152  0.18035407  0.90259476    -0.01600
Br2190     Br  0.68889189  0.19512016  0.84921854    -0.01500
C2191       C  0.95684526  0.15097769  0.63899629    -0.02700
C2192       C  0.96438496  0.12708807  0.65521801     0.07000
C2193       C  0.65957384  0.11059353  0.64771244    -0.02800
C2194       C  0.67964130  0.11666032  0.62286088    -0.02800
C2195       C  0.67286343  0.14137787  0.60782948     0.07100
C2196       C  0.97804961  0.15835128  0.61561345    -0.03000
Br2197     Br  0.96735006  0.18933120  0.59153029    -0.01500
Br2198     Br  0.91671515  0.17207456  0.64635594    -0.01600
Br2199     Br  0.71520667  0.08908116  0.60795383    -0.01600
Br2200     Br  0.67212863  0.08027305  0.67217177    -0.01500
C2201       C  0.85885376  0.12439910  0.91472711    -0.02700
C2202       C  0.83081768  0.10778443  0.90411554     0.07000
C2203       C  0.82291597  0.09717163  0.86825748    -0.02800
C2204       C  0.84264675  0.10405834  0.84331052    -0.02800
C2205       C  0.86980623  0.12211783  0.85419799     0.07100
C2206       C  0.87791923  0.13226501  0.88993876    -0.03000
Br2207     Br  0.91452849  0.15803968  0.90547985    -0.01500
Br2208     Br  0.87119831  0.13626025  0.96330096    -0.01600
Br2209     Br  0.83097686  0.09135392  0.79461131    -0.01600
Br2210     Br  0.78365425  0.07598191  0.85318218    -0.01500
C2211       C  0.82456431  0.10909706  0.59043677    -0.02700
C2212       C  0.79643156  0.12505757  0.60244227     0.07000
C2213       C  0.78880009  0.13300683  0.63819955    -0.02800
C2214       C  0.80820068  0.12320683  0.66147884    -0.02800
C2215       C  0.83701429  0.10852453  0.64996738     0.07100
C2216       C  0.84535216  0.10169751  0.61435318    -0.03000
Br2217     Br  0.88636752  0.08538602  0.59870742    -0.01500
Br2218     Br  0.83588178  0.09999610  0.54187445    -0.01600
Br2219     Br  0.79507951  0.12963355  0.70922562    -0.01600
Br2220     Br  0.75311116  0.15950173  0.65617511    -0.01500
C2221       C  0.69902744  0.99307656  0.98327628    -0.02700
C2222       C  0.68839893  0.02470374  0.99349516     0.07000
C2223       C  0.99037070  0.03190099  0.50473184    -0.02800
C2224       C  0.97053036  0.50714302  0.50748788    -0.02800
C2225       C  0.98194742  0.47581112  0.49989729     0.07100
C2226       C  0.67914529  0.46827415  0.98562217    -0.03000
Br2227     Br  0.69415678  0.42509002  0.97147797    -0.01500
Br2228     Br  0.74159612  0.98419759  0.96796089    -0.01600
Br2229     Br  0.92737077  0.51575021  0.52066492    -0.01600
Br2230     Br  0.97417579  0.07448681  0.51404775    -0.01500
C2231       C  0.81947061  0.27610536  0.98610670    -0.02700
C2232       C  0.85052335  0.27565422  0.99776476     0.07000
C2233       C  0.85955859  0.25405217  0.51516162    -0.02800
C2234       C  0.83731603  0.23296376  0.52192650    -0.02800
C2235       C  0.80628727  0.23321928  0.50991266     0.07100
C2236       C  0.79740960  0.25457249  0.99228076    -0.03000
Br2237     Br  0.75473822  0.25602316  0.97729624    -0.01500
Br2238     Br  0.80704444  0.30694065  0.96246316    -0.01600
Br2239     Br  0.84959376  0.20334099  0.54722225    -0.01600
Br2240     Br  0.90238267  0.25237044  0.52966824    -0.01500
O2241       O  0.71826125  0.55255114  0.46221598    -0.81700
O2242       O  0.77491534  0.68782263  0.48723892    -0.66400
O2243       O  0.76169011  0.60273664  0.48932834    -1.13000
C2244       C  0.69419772  0.64534808  0.08110370     1.05200
O2245       O  0.77614449  0.70812464  0.04544563    -0.79600
O2246       O  0.77564325  0.66278851  0.07892396    -0.67200
Ni2247     Ni  0.75630314  0.56867439  0.44739909     1.34900
C2248       C  0.77508807  0.63376645  0.07820275     0.83900
O2249       O  0.79919937  0.63311763  0.45167805    -0.80200
O2250       O  0.79364856  0.58049922  0.42786940    -0.90400
C2251       C  0.78403583  0.70833512  0.01472398     0.83500
O2252       O  0.73158640  0.59148687  0.42308986    -0.68600
O2253       O  0.71264008  0.66917291  0.08902236    -0.87900
C2254       C  0.72476618  0.62060476  0.42834432     0.84300
C2255       C  0.80656681  0.60699073  0.42962181     1.05900
H2256       H  0.71800607  0.66279892  0.01120558     0.37700
O2257       O  0.73606940  0.65534934  0.02112823    -1.10600
O2258       O  0.75646721  0.61343188  0.05915827    -0.67200
Ni2259     Ni  0.72804537  0.61282317  0.02116216     1.26300
O2260       O  0.73684489  0.64290151  0.45227985    -0.67500
O2261       O  0.69438699  0.62436173  0.05204994    -0.79800
C2262       C  0.70985889  0.55099636  0.49217257     0.83700
O2263       O  0.71927099  0.57001384  0.01932147    -0.66900
Ni2264     Ni  0.74404617  0.68664757  0.06457207     1.27400
Ni2265     Ni  0.76816707  0.64498054  0.48694896     1.26100
H2266       H  0.77965414  0.59699105  0.50092830     0.38200
O2267       O  0.88419046  0.79631990  0.46134812    -0.81700
O2268       O  0.95034812  0.93000981  0.47976461    -0.66400
O2269       O  0.92717937  0.84724864  0.48363249    -1.13000
C2270       C  0.86746321  0.90285865  0.08050966     1.05200
O2271       O  0.95688766  0.94966905  0.03638751    -0.79600
O2272       O  0.95220239  0.90229542  0.06749435    -0.67200
Ni2273     Ni  0.91750761  0.81489123  0.44084817     1.34900
C2274       C  0.94681806  0.87387850  0.06765193     0.83900
O2275       O  0.96999439  0.87353071  0.44650088    -0.80200
O2276       O  0.94990428  0.82799270  0.41376737    -0.90400
C2277       C  0.96209681  0.94982588  0.00508317     0.83500
O2278       O  0.88769946  0.83989945  0.42529603    -0.68600
O2279       O  0.89127407  0.92098013  0.08626010    -0.87900
C2280       C  0.88871948  0.86896840  0.42602680     0.84300
C2281       C  0.96916141  0.85092991  0.41874425     1.05900
H2282       H  0.89188719  0.91437850  0.00675133     0.37700
O2283       O  0.90835677  0.90393092  0.01565370    -1.10600
O2284       O  0.92263519  0.85878539  0.05362417    -0.67200
Ni2285     Ni  0.89417243  0.86339752  0.01767707     1.26300
O2286       O  0.90764740  0.88909098  0.44527330    -0.67500
O2287       O  0.86310044  0.88152449  0.05177093    -0.79800
C2288       C  0.87344521  0.79945577  0.49184722     0.83700
O2289       O  0.87918063  0.82287419  0.01813842    -0.66900
Ni2290     Ni  0.92362204  0.93252540  0.05842084     1.27400
Ni2291     Ni  0.93890656  0.88848336  0.48076665     1.26100
H2292       H  0.94440180  0.83906959  0.49417101     0.38200
O2293       O  0.88742007  0.70440944  0.29251038    -0.81700
O2294       O  0.94253075  0.56610090  0.27000689    -0.66400
O2295       O  0.92854136  0.65162862  0.26969083    -1.13000
C2296       C  0.86017404  0.60528825  0.17579630     1.05200
O2297       O  0.94437137  0.54624267  0.21242665    -0.79600
O2298       O  0.93705130  0.58762851  0.17392605    -0.67200
Ni2299     Ni  0.92013712  0.68414509  0.31222283     1.34900
C2300       C  0.94194901  0.61697439  0.17811049     0.83900
O2301       O  0.96762987  0.62045711  0.30369297    -0.80200
O2302       O  0.95209526  0.66825568  0.33715856    -0.90400
C2303       C  0.95198485  0.54536493  0.24297730     0.83500
O2304       O  0.88917426  0.66107436  0.32857535    -0.68600
O2305       O  0.87445061  0.57906982  0.17211484    -0.87900
C2306       C  0.88852866  0.63200283  0.32770091     0.84300
C2307       C  0.96927003  0.64353745  0.33108502     1.05900
H2308       H  0.88399808  0.59294210  0.24800976     0.37700
O2309       O  0.90238511  0.59867943  0.23729099    -1.10600
O2310       O  0.92804932  0.63895944  0.20066061    -0.67200
Ni2311     Ni  0.89678853  0.64125117  0.23517196     1.26300
O2312       O  0.90557764  0.61069206  0.30769305    -0.67500
O2313       O  0.86566941  0.63040599  0.20016485    -0.79800
C2314       C  0.88134807  0.70506825  0.26150913     0.83700
O2315       O  0.89132215  0.68407070  0.23506919    -0.66900
Ni2316     Ni  0.90902255  0.56505484  0.19490646     1.27400
Ni2317     Ni  0.93516913  0.60906513  0.27078724     1.26100
H2318       H  0.94709551  0.65829640  0.26001206     0.38200
O2319       O  0.71375956  0.94673926  0.28755728    -0.81700
O2320       O  0.77959598  0.81403142  0.26095762    -0.66400
O2321       O  0.75937758  0.89872605  0.26178711    -1.13000
C2322       C  0.70298159  0.84705809  0.16009697     1.05200
O2323       O  0.79347210  0.80180488  0.20526278    -0.79600
O2324       O  0.78632202  0.84912939  0.17419351    -0.67200
Ni2325     Ni  0.75118137  0.93090370  0.30476898     1.34900
C2326       C  0.78052877  0.87794563  0.17596613     0.83900
O2327       O  0.79728839  0.86896314  0.30182755    -0.80200
O2328       O  0.78812773  0.92034508  0.32745051    -0.90400
C2329       C  0.79519911  0.79728932  0.23538956     0.83500
O2330       O  0.72622065  0.90480878  0.32483596    -0.68600
O2331       O  0.72642756  0.82828560  0.15451163    -0.87900
C2332       C  0.72134845  0.87508983  0.31805904     0.84300
C2333       C  0.80283881  0.89460261  0.32534838     1.05900
H2334       H  0.72457749  0.83227281  0.23046623     0.37700
O2335       O  0.74198580  0.84367405  0.22445923    -1.10600
O2336       O  0.75713846  0.89289743  0.19215388    -0.67200
Ni2337     Ni  0.72808079  0.88503701  0.22567597     1.26300
O2338       O  0.73554304  0.85427883  0.29403045    -0.67500
O2339       O  0.69856632  0.86872269  0.18880497    -0.79800
C2340       C  0.70415708  0.94705779  0.25737882     0.83700
O2341       O  0.71283887  0.92671625  0.22953322    -0.66900
Ni2342     Ni  0.75940103  0.81725608  0.18219821     1.27400
Ni2343     Ni  0.76949357  0.85659130  0.26311874     1.26100
H2344       H  0.77729479  0.90633269  0.25194685     0.38200
C2345       C  0.67107016  0.52795249  0.25905354    -0.02700
C2346       C  0.97360444  0.52016829  0.24703432     0.07000
C2347       C  0.96375701  0.48827576  0.23853702    -0.02800
C2348       C  0.98450240  0.96432124  0.24207266    -0.02800
C2349       C  0.68185408  0.97220124  0.25459991     0.07100
C2350       C  0.69157704  0.00417168  0.26337562    -0.03000
Br2351     Br  0.73359245  0.01522673  0.27987185    -0.01500
Br2352     Br  0.68607122  0.57081507  0.26714292    -0.01600
Br2353     Br  0.97052609  0.92083144  0.23071191    -0.01600
Br2354     Br  0.92154871  0.47771534  0.22268572    -0.01500
C2355       C  0.80703338  0.75090572  0.25828562    -0.02700
C2356       C  0.81726306  0.77325706  0.24132534     0.07000
C2357       C  0.84889882  0.77311518  0.23108433    -0.02800
C2358       C  0.87014925  0.75144807  0.23867253    -0.02800
C2359       C  0.85988821  0.72948113  0.25593708     0.07100
C2360       C  0.82830523  0.72917971  0.26564260    -0.03000
Br2361     Br  0.81385106  0.69787925  0.28762334    -0.01500
Br2362     Br  0.76337681  0.74816958  0.26901998    -0.01600
Br2363     Br  0.91368589  0.75257879  0.22665459    -0.01200
Br2364     Br  0.86373282  0.80274547  0.20711822    -0.01500
C2365       C  0.98364962  0.87820080  0.37440094    -0.02700
C2366       C  0.98970345  0.85373541  0.39007596     0.07000
C2367       C  0.68303835  0.83446501  0.38012695    -0.02800
C2368       C  0.70436627  0.84077902  0.35596116    -0.02800
C2369       C  0.69782726  0.86496461  0.33986547     0.07100
C2370       C  0.00317064  0.88244577  0.34801463    -0.03000
Br2371     Br  0.99078449  0.91203046  0.32257870    -0.01500
Br2372     Br  0.94972198  0.90779082  0.39023038    -0.01600
Br2373     Br  0.74371365  0.81841792  0.34786996    -0.01600
Br2374     Br  0.69154062  0.80124944  0.40172545    -0.01500
C2375       C  0.95980747  0.84428012  0.11166212    -0.02700
C2376       C  0.96949585  0.85825780  0.08558777     0.07000
C2377       C  0.66830374  0.85867584  0.07806092    -0.02800
C2378       C  0.69027156  0.84941774  0.09954814    -0.02800
C2379       C  0.68041496  0.84461756  0.13133317     0.07100
C2380       C  0.98179357  0.83966251  0.13608110    -0.03000
Br2381     Br  0.96862437  0.82474052  0.17478350    -0.01500
Br2382     Br  0.91756586  0.82949145  0.11290692    -0.01600
Br2383     Br  0.73285430  0.84087583  0.08396872    -0.01600
Br2384     Br  0.68213015  0.87047509  0.03750478    -0.01500
C2385       C  0.82072111  0.90446285  0.38807515    -0.02700
C2386       C  0.82705355  0.89320765  0.35182476     0.07000
C2387       C  0.85471981  0.87571813  0.34075892    -0.02800
C2388       C  0.87416933  0.86717433  0.36501827    -0.02800
C2389       C  0.86816752  0.87888334  0.40114555     0.07100
C2390       C  0.84162886  0.89792239  0.41265713    -0.03000
Br2391     Br  0.83235923  0.91211285  0.46192107    -0.01500
Br2392     Br  0.78207012  0.92606079  0.40421083    -0.01600
Br2393     Br  0.90784878  0.83744064  0.34805280    -0.01600
Br2394     Br  0.86671090  0.86388692  0.29221205    -0.01500
C2395       C  0.81265191  0.90844533  0.10413717    -0.02700
C2396       C  0.84497446  0.90518087  0.10927452     0.07000
C2397       C  0.85554687  0.90195587  0.14164858    -0.02800
C2398       C  0.83409426  0.89488191  0.16494382    -0.02800
C2399       C  0.80195278  0.89413865  0.15760458     0.07100
C2400       C  0.79128810  0.90513322  0.12967565    -0.03000
Br2401     Br  0.74828920  0.91758913  0.12761375    -0.01500
Br2402     Br  0.79767315  0.91772917  0.06251678    -0.01600
Br2403     Br  0.84837804  0.88725008  0.20765975    -0.01600
Br2404     Br  0.89910414  0.90653662  0.15427655    -0.01500
C2405       C  0.98608097  0.61489836  0.37295906    -0.02700
C2406       C  0.99091321  0.63995199  0.35798860     0.07000
C2407       C  0.68359121  0.66001874  0.36755467    -0.02800
C2408       C  0.70593331  0.65383711  0.39062424    -0.02800
C2409       C  0.70111047  0.62864032  0.40557640     0.07100
C2410       C  0.00702244  0.61021885  0.39788365    -0.03000
Br2411     Br  0.99670110  0.57972833  0.42280483    -0.01500
Br2412     Br  0.95089808  0.58644565  0.35939334    -0.01600
Br2413     Br  0.74386693  0.67859047  0.39945525    -0.01600
Br2414     Br  0.68946829  0.69463113  0.34735140    -0.01500
C2415       C  0.95754595  0.65038925  0.13943630    -0.02700
C2416       C  0.96463963  0.62597489  0.15508313     0.07000
C2417       C  0.65940791  0.60874226  0.14682672    -0.02800
C2418       C  0.67947746  0.61476603  0.12193241    -0.02800
C2419       C  0.67302680  0.63989182  0.10741724     0.07100
C2420       C  0.97860591  0.65738937  0.11574499    -0.03000
Br2421     Br  0.96809783  0.68849191  0.09173123    -0.01500
Br2422     Br  0.91820070  0.67292955  0.14795898    -0.01600
Br2423     Br  0.71463235  0.58674489  0.10637926    -0.01600
Br2424     Br  0.67147616  0.57748371  0.17029041    -0.01500
C2425       C  0.85738464  0.62628437  0.41383828    -0.02700
C2426       C  0.83002880  0.60838195  0.40327473     0.07000
C2427       C  0.82262863  0.59671619  0.36732515    -0.02800
C2428       C  0.84214280  0.60382394  0.34229454    -0.02800
C2429       C  0.86855643  0.62310451  0.35317240     0.07100
C2430       C  0.87604977  0.63447654  0.38897952    -0.03000
Br2431     Br  0.91123274  0.66243151  0.40450939    -0.01500
Br2432     Br  0.86955784  0.63936807  0.46246284    -0.01600
Br2433     Br  0.83100593  0.58984652  0.29346241    -0.01600
Br2434     Br  0.78436177  0.57359593  0.35208770    -0.01500
C2435       C  0.82392612  0.60760773  0.09018709    -0.02700
C2436       C  0.79590575  0.62373648  0.10225553     0.07000
C2437       C  0.78826419  0.63174446  0.13800963    -0.02800
C2438       C  0.80784352  0.62225926  0.16134504    -0.02800
C2439       C  0.83670185  0.60770684  0.14978877     0.07100
C2440       C  0.84485035  0.60050142  0.11410939    -0.03000
Br2441     Br  0.88579040  0.58408530  0.09831895    -0.01500
Br2442     Br  0.83484597  0.59764067  0.04145095    -0.01600
Br2443     Br  0.79492913  0.62891863  0.20921042    -0.01600
Br2444     Br  0.75219921  0.65768858  0.15584675    -0.01500
C2445       C  0.69951342  0.49388225  0.48593794    -0.02700
C2446       C  0.68844636  0.52533841  0.49450611     0.07000
C2447       C  0.99077685  0.53146976  0.00537038    -0.02800
C2448       C  0.97110826  0.00675746  0.00852453    -0.02800
C2449       C  0.98204732  0.97518304  0.99913241     0.07100
C2450       C  0.67962870  0.96910928  0.48834486    -0.03000
Br2451     Br  0.69518043  0.92614033  0.47656352    -0.01500
Br2452     Br  0.74253706  0.48519464  0.47251258    -0.01600
Br2453     Br  0.92876304  0.01585734  0.02481669    -0.01600
Br2454     Br  0.97478829  0.57422239  0.01604540    -0.01500
C2455       C  0.81957387  0.77688581  0.48596675    -0.02700
C2456       C  0.85075910  0.77595704  0.49707308     0.07000
C2457       C  0.85937213  0.75394190  0.01609359    -0.02800
C2458       C  0.83723178  0.73266809  0.02269103    -0.02800
C2459       C  0.80625447  0.73268487  0.01043948     0.07100
C2460       C  0.79740985  0.75545115  0.49221927    -0.03000
Br2461     Br  0.75450202  0.75769250  0.47834327    -0.01500
Br2462     Br  0.80707322  0.80837337  0.46325733    -0.01600
Br2463     Br  0.84966362  0.70281686  0.04763988    -0.01600
Br2464     Br  0.90213073  0.75263391  0.03093144    -0.01500
O2465       O  0.71863898  0.55197984  0.96169187    -0.81700
O2466       O  0.77519899  0.68716370  0.98765502    -0.66400
O2467       O  0.76189406  0.60209946  0.98950449    -1.13000
C2468       C  0.69409683  0.64659545  0.58137990     1.05200
O2469       O  0.77624613  0.70872399  0.54502223    -0.79600
O2470       O  0.77550609  0.66396048  0.57923275    -0.67200
Ni2471     Ni  0.75690973  0.56807817  0.94749625     1.34900
C2472       C  0.77539909  0.63488861  0.57834442     0.83900
O2473       O  0.79976774  0.63259475  0.95227202    -0.80200
O2474       O  0.79451052  0.57991550  0.92857470    -0.90400
C2475       C  0.78397472  0.70894275  0.51426094     0.83500
O2476       O  0.73255654  0.59093326  0.92294294    -0.68600
O2477       O  0.71236668  0.67056634  0.58896603    -0.87900
C2478       C  0.72540363  0.61999493  0.92846604     0.84300
C2479       C  0.80734292  0.60644676  0.93038883     1.05900
H2480       H  0.71780797  0.66330521  0.51116446     0.37700
O2481       O  0.73597460  0.65601192  0.52106313    -1.10600
O2482       O  0.75701373  0.61434015  0.55916947    -0.67200
Ni2483     Ni  0.72813740  0.61352045  0.52143505     1.26300
O2484       O  0.73725044  0.64226105  0.95259177    -0.67500
O2485       O  0.69466172  0.62509986  0.55268592    -0.79800
C2486       C  0.70987351  0.55037464  0.99149373     0.83700
O2487       O  0.71951572  0.57069490  0.51985258    -0.66900
Ni2488     Ni  0.74398619  0.68760036  0.56433136     1.27400
Ni2489     Ni  0.76847307  0.64435506  0.98730158     1.26100
H2490       H  0.77970483  0.59634651  0.00130242     0.38200
O2491       O  0.88406987  0.79561955  0.96191621    -0.81700
O2492       O  0.95101229  0.92896592  0.97913449    -0.66400
O2493       O  0.92639243  0.84687135  0.98364850    -1.13000
C2494       C  0.86893759  0.90201519  0.58155341     1.05200
O2495       O  0.95757725  0.94956664  0.53698001    -0.79600
O2496       O  0.95361798  0.90143617  0.56715727    -0.67200
Ni2497     Ni  0.91618783  0.81498753  0.94069315     1.34900
C2498       C  0.94810346  0.87303295  0.56725961     0.83900
O2499       O  0.97028335  0.87202988  0.94707633    -0.80200
O2500       O  0.94738108  0.82892197  0.91284730    -0.90400
C2501       C  0.96195382  0.95044567  0.50575819     0.83500
O2502       O  0.88551614  0.84036989  0.92707876    -0.68600
O2503       O  0.89288520  0.91996339  0.58731530    -0.87900
C2504       C  0.88792605  0.86900545  0.92646756     0.84300
C2505       C  0.96784685  0.85080156  0.91836758     1.05900
H2506       H  0.89224546  0.91456863  0.50819221     0.37700
O2507       O  0.90893139  0.90395872  0.51651340    -1.10600
O2508       O  0.92374540  0.85816899  0.55352039    -0.67200
Ni2509     Ni  0.89509170  0.86319917  0.51803547     1.26300
O2510       O  0.90815324  0.88843892  0.94437241    -0.67500
O2511       O  0.86431334  0.88092362  0.55265696    -0.79800
C2512       C  0.87300259  0.79923377  0.99236579     0.83700
O2513       O  0.88038943  0.82246043  0.51797513    -0.66900
Ni2514     Ni  0.92477600  0.93199886  0.55926842     1.27400
Ni2515     Ni  0.93879944  0.88779964  0.98057318     1.26100
H2516       H  0.94333530  0.83836079  0.99427024     0.38200
O2517       O  0.88754962  0.70389374  0.79391232    -0.81700
O2518       O  0.94262318  0.56552049  0.76941820    -0.66400
O2519       O  0.92881785  0.65132495  0.77023477    -1.13000
C2520       C  0.86035487  0.60579402  0.67605105     1.05200
O2521       O  0.94509978  0.54672428  0.71179002    -0.79600
O2522       O  0.93703812  0.58840791  0.67368547    -0.67200
Ni2523     Ni  0.92079431  0.68367395  0.81300621     1.34900
C2524       C  0.94184612  0.61781949  0.67819455     0.83900
O2525       O  0.96790030  0.61957240  0.80366793    -0.80200
O2526       O  0.95323992  0.66769461  0.83719343    -0.90400
C2527       C  0.95249052  0.54530414  0.74222354     0.83500
O2528       O  0.89048935  0.66053492  0.83026760    -0.68600
O2529       O  0.87452889  0.57947201  0.67221150    -0.87900
C2530       C  0.88959030  0.63131437  0.82875391     0.84300
C2531       C  0.97000625  0.64267747  0.83098935     1.05900
H2532       H  0.88423040  0.59273585  0.74787203     0.37700
O2533       O  0.90261213  0.59863644  0.73727267    -1.10600
O2534       O  0.92813081  0.63962415  0.70114841    -0.67200
Ni2535     Ni  0.89701028  0.64136885  0.73571783     1.26300
O2536       O  0.90593240  0.60997500  0.80779059    -0.67500
O2537       O  0.86590030  0.63080503  0.70059959    -0.79800
C2538       C  0.88156371  0.70509155  0.76305884     0.83700
O2539       O  0.89154112  0.68438654  0.73636006    -0.66900
Ni2540     Ni  0.90938864  0.56540453  0.69461302     1.27400
Ni2541     Ni  0.93538181  0.60862673  0.77080824     1.26100
H2542       H  0.94737563  0.65798621  0.76055581     0.38200
O2543       O  0.71385821  0.94670644  0.78692095    -0.81700
O2544       O  0.77937020  0.81348287  0.76130610    -0.66400
O2545       O  0.75930545  0.89826233  0.76191562    -1.13000
C2546       C  0.70430085  0.84667386  0.65943417     1.05200
O2547       O  0.79397299  0.80132716  0.70582990    -0.79600
O2548       O  0.78777006  0.84929959  0.67565436    -0.67200
Ni2549     Ni  0.75070666  0.93049235  0.80475769     1.34900
C2550       C  0.78166146  0.87794771  0.67698974     0.83900
O2551       O  0.79680293  0.86849478  0.80229926    -0.80200
O2552       O  0.78701926  0.91974268  0.82815267    -0.90400
C2553       C  0.79533045  0.79682557  0.73597919     0.83500
O2554       O  0.72518825  0.90441838  0.82421752    -0.68600
O2555       O  0.72814179  0.82842372  0.65399847    -0.87900
C2556       C  0.72028207  0.87471733  0.81756894     0.84300
C2557       C  0.80190167  0.89411306  0.82600734     1.05900
H2558       H  0.72481303  0.83156878  0.72997047     0.37700
O2559       O  0.74226714  0.84313584  0.72433668    -1.10600
O2560       O  0.75773565  0.89250510  0.69229979    -0.67200
Ni2561     Ni  0.72837345  0.88449842  0.72543234     1.26300
O2562       O  0.73488072  0.85384295  0.79392182    -0.67500
O2563       O  0.69929025  0.86802112  0.68823276    -0.79800
C2564       C  0.70452360  0.94683099  0.75659633     0.83700
O2565       O  0.71311209  0.92614651  0.72896499    -0.66900
Ni2566     Ni  0.76047912  0.81712356  0.68228988     1.27400
Ni2567     Ni  0.76929227  0.85609221  0.76337623     1.26100
H2568       H  0.77735064  0.90587711  0.75230289     0.38200
C2569       C  0.67193486  0.52772466  0.75715129    -0.02700
C2570       C  0.97422687  0.52009331  0.74599825     0.07000
C2571       C  0.96411388  0.48834715  0.73835888    -0.02800
C2572       C  0.98487019  0.96432833  0.74168197    -0.02800
C2573       C  0.68246167  0.97204723  0.75341474     0.07100
C2574       C  0.69248013  0.00390212  0.76135278    -0.03000
Br2575     Br  0.73484523  0.01471743  0.77665119    -0.01500
Br2576     Br  0.68699227  0.57051149  0.76470689    -0.01600
Br2577     Br  0.97065589  0.92095856  0.73104036    -0.01600
Br2578     Br  0.92144667  0.47816180  0.72423498    -0.01500
C2579       C  0.80699333  0.75003716  0.75828542    -0.02700
C2580       C  0.81744921  0.77296410  0.74225062     0.07000
C2581       C  0.84937500  0.77366058  0.73340117    -0.02800
C2582       C  0.87067351  0.75235290  0.74163884    -0.02800
C2583       C  0.86013750  0.72968945  0.75782182     0.07100
C2584       C  0.82830372  0.72861865  0.76621419    -0.03000
Br2585     Br  0.81369172  0.69690642  0.78749629    -0.01500
Br2586     Br  0.76304915  0.74600716  0.76669187    -0.01600
Br2587     Br  0.91462555  0.75503030  0.73224593    -0.01200
Br2588     Br  0.86442312  0.80375867  0.71016917    -0.01500
C2589       C  0.98310791  0.87939909  0.87536910    -0.02700
C2590       C  0.98814187  0.85384032  0.88962823     0.07000
C2591       C  0.68035659  0.83335166  0.87818681    -0.02800
C2592       C  0.70175291  0.83942003  0.85395319    -0.02800
C2593       C  0.69634733  0.86479992  0.83925072     0.07100
C2594       C  0.00256609  0.88361546  0.84889400    -0.03000
Br2595     Br  0.99113212  0.91510429  0.82551645    -0.01500
Br2596     Br  0.95063531  0.91032107  0.89311840    -0.01600
Br2597     Br  0.73973533  0.81484628  0.84408594    -0.01600
Br2598     Br  0.68732787  0.79868474  0.89805684    -0.01500
C2599       C  0.96108456  0.84368165  0.61134892    -0.02700
C2600       C  0.97073290  0.85717910  0.58489469     0.07000
C2601       C  0.66944921  0.85712818  0.57689535    -0.02800
C2602       C  0.69155481  0.84832004  0.59856170    -0.02800
C2603       C  0.68180227  0.84384991  0.63055447     0.07100
C2604       C  0.98321307  0.83893396  0.63551986    -0.03000
Br2605     Br  0.97026130  0.82400673  0.67430855    -0.01500
Br2606     Br  0.91853063  0.83015667  0.61376233    -0.01600
Br2607     Br  0.73423138  0.84033965  0.58313542    -0.01600
Br2608     Br  0.68284721  0.86771255  0.53547332    -0.01500
C2609       C  0.81846975  0.90212162  0.88866562    -0.02700
C2610       C  0.82586644  0.89293832  0.85265391     0.07000
C2611       C  0.85456285  0.87756744  0.84167786    -0.02800
C2612       C  0.87426272  0.86907027  0.86573849    -0.02800
C2613       C  0.86741541  0.87914916  0.90176850     0.07100
C2614       C  0.83967316  0.89610830  0.91323712    -0.03000
Br2615     Br  0.82948242  0.90823501  0.96227878    -0.01500
Br2616     Br  0.77795284  0.91949890  0.90408762    -0.01600
Br2617     Br  0.90890399  0.84085202  0.84836818    -0.01600
Br2618     Br  0.86728887  0.86826524  0.79351138    -0.01500
C2619       C  0.81408034  0.90759678  0.60489350    -0.02700
C2620       C  0.84638490  0.90452447  0.61032602     0.07000
C2621       C  0.85679420  0.90208310  0.64310345    -0.02800
C2622       C  0.83520359  0.89544104  0.66655104    -0.02800
C2623       C  0.80312746  0.89427361  0.65883251     0.07100
C2624       C  0.79260078  0.90468775  0.63047620    -0.03000
Br2625     Br  0.74960072  0.91693140  0.62788862    -0.01500
Br2626     Br  0.79923901  0.91611164  0.56280412    -0.01600
Br2627     Br  0.84912469  0.88909541  0.70999975    -0.01600
Br2628     Br  0.90024341  0.90716121  0.65613349    -0.01500
C2629       C  0.98746079  0.61315971  0.87183025    -0.02700
C2630       C  0.99174770  0.63884757  0.85768839     0.07000
C2631       C  0.68364019  0.65977388  0.86842278    -0.02800
C2632       C  0.70581186  0.65389991  0.89181679    -0.02800
C2633       C  0.70165536  0.62796487  0.90576495     0.07100
C2634       C  0.00817839  0.60871069  0.89705838    -0.03000
Br2635     Br  0.99815560  0.57751770  0.92119180    -0.01500
Br2636     Br  0.95324568  0.58361795  0.85694828    -0.01600
Br2637     Br  0.74255214  0.68034655  0.90258925    -0.01600
Br2638     Br  0.68888921  0.69512005  0.84922141    -0.01500
C2639       C  0.95684416  0.65097774  0.63899756    -0.02700
C2640       C  0.96438368  0.62708726  0.65521808     0.07000
C2641       C  0.65957739  0.61059398  0.64771750    -0.02800
C2642       C  0.67964651  0.61666117  0.62286743    -0.02800
C2643       C  0.67286748  0.64137581  0.60783201     0.07100
C2644       C  0.97804919  0.65835314  0.61561643    -0.03000
Br2645     Br  0.96735092  0.68933619  0.59153698    -0.01500
Br2646     Br  0.91671300  0.67207247  0.64635572    -0.01600
Br2647     Br  0.71521580  0.58908616  0.60796741    -0.01600
Br2648     Br  0.67213186  0.58027634  0.67218064    -0.01500
C2649       C  0.85885424  0.62439034  0.91472462    -0.02700
C2650       C  0.83081820  0.60777591  0.90411226     0.07000
C2651       C  0.82291644  0.59716459  0.86825421    -0.02800
C2652       C  0.84264690  0.60405315  0.84330806    -0.02800
C2653       C  0.86980624  0.62211271  0.85419646     0.07100
C2654       C  0.87791938  0.63225809  0.88993720    -0.03000
Br2655     Br  0.91452801  0.65803333  0.90547961    -0.01500
Br2656     Br  0.87119897  0.63624882  0.96329837    -0.01600
Br2657     Br  0.83097660  0.59135120  0.79460902    -0.01600
Br2658     Br  0.78365513  0.57597427  0.85317825    -0.01500
C2659       C  0.82456252  0.60908418  0.59043751    -0.02700
C2660       C  0.79643328  0.62505211  0.60244274     0.07000
C2661       C  0.78880381  0.63300852  0.63820093    -0.02800
C2662       C  0.80820220  0.62320792  0.66148152    -0.02800
C2663       C  0.83701328  0.60851950  0.64997044     0.07100
C2664       C  0.84534949  0.60168535  0.61435513    -0.03000
Br2665     Br  0.88636203  0.58536523  0.59870865    -0.01500
Br2666     Br  0.83587738  0.59997238  0.54187351    -0.01600
Br2667     Br  0.79508074  0.62964109  0.70922912    -0.01600
Br2668     Br  0.75312059  0.65951294  0.65617548    -0.01500
C2669       C  0.69902598  0.49307248  0.98327162    -0.02700
C2670       C  0.68839739  0.52469956  0.99349201     0.07000
C2671       C  0.99036918  0.53190345  0.50473185    -0.02800
C2672       C  0.97053217  0.00714083  0.50748936    -0.02800
C2673       C  0.98194814  0.97580829  0.49989520     0.07100
C2674       C  0.67914654  0.96827875  0.98562814    -0.03000
Br2675     Br  0.69415791  0.92509458  0.97148637    -0.01500
Br2676     Br  0.74159470  0.48419448  0.96795632    -0.01600
Br2677     Br  0.92737415  0.01574928  0.52067309    -0.01600
Br2678     Br  0.97417410  0.57448913  0.51404641    -0.01500
C2679       C  0.81947548  0.77609665  0.98609949    -0.02700
C2680       C  0.85052635  0.77564994  0.99776464     0.07000
C2681       C  0.85956228  0.75404571  0.51515604    -0.02800
C2682       C  0.83732092  0.73295602  0.52192050    -0.02800
C2683       C  0.80629100  0.73321313  0.50991072     0.07100
C2684       C  0.79741474  0.75456247  0.99227102    -0.03000
Br2685     Br  0.75474550  0.75600830  0.97727770    -0.01500
Br2686     Br  0.80705157  0.80692691  0.96244818    -0.01600
Br2687     Br  0.84960166  0.70332946  0.54721017    -0.01600
Br2688     Br  0.90238789  0.75236219  0.52965678    -0.01500
loop_ 
_geom_bond_atom_site_label_1 
_geom_bond_atom_site_label_2 
_geom_bond_distance 
_geom_bond_site_symmetry_2 
_ccdc_geom_bond_type 
O1           Ni7   1.938       .  S
O1           C22   1.270       .  A
O2          Ni25   1.901       .  S
O2          C235   1.267       .  A
O3           Ni7   1.915       .  S
O3          Ni25   1.905       .  S
O3         Ni243   1.896       .  S
O3           H26   0.967       .  S
C4           O21   1.260       .  A
C4           O13   1.278       .  A
C4          C179   1.460       .  S
O5          Ni24   1.945       .  S
O5           C11   1.276       .  A
O6          Ni24   1.895       .  S
O6            C8   1.267       .  A
Ni7          O10   1.917       .  S
Ni7          O12   1.900       .  S
C8           O18   1.275       .  A
C8          C196   1.465       .  S
O9          Ni25   1.900       .  S
O9           C15   1.271       .  A
O10          C15   1.273       .  A
C11         O226   1.266   1_554  A
C11         C219   1.479       .  S
O12          C14   1.269       .  A
O13         Ni24   1.946       .  S
C14          O20   1.268       .  A
C14         C169   1.468       .  S
C15         C186   1.471       .  S
H16          O17   0.966       .  S
O17         Ni19   1.900       .  S
O17         Ni24   1.913       .  S
O17        Ni249   1.903   1_554  S
O18         Ni19   1.937       .  S
Ni19         O23   1.898       .  S
Ni19         O21   1.873       .  S
Ni19        O227   1.895   1_554  S
O20         Ni25   1.909       .  S
C22         O247   1.263       .  A
C22         C206   1.478       .  S
O23         C246   1.263   1_554  A
Ni25        O241   1.903       .  S
O27         Ni33   1.940       .  S
O27          C48   1.273       .  A
O28         Ni51   1.900       .  S
O28         C261   1.265       .  A
O29         Ni33   1.931       .  S
O29         Ni51   1.915       .  S
O29        Ni269   1.930       .  S
O29          H52   0.966       .  S
C30          O47   1.272       .  A
C30          O39   1.274       .  A
C30         C156   1.482       .  S
O31         Ni50   1.939       .  S
O31          C37   1.272       .  A
O32         Ni50   1.912       .  S
O32          C34   1.271       .  A
Ni33         O36   1.947       .  S
Ni33         O38   1.897       .  S
C34          O44   1.271       .  A
C34         C136   1.483       .  S
O35         Ni51   1.890       .  S
O35          C41   1.261       .  A
O36          C41   1.274       .  A
C37         O252   1.264   1_554  A
C37         C209   1.477   1_554  S
O38          C40   1.269       .  A
O39         Ni50   1.935       .  S
C40          O46   1.281       .  A
C40         C149   1.481       .  S
C41         C126   1.478       .  S
H42          O43   0.962       .  S
O43         Ni45   1.905       .  S
O43         Ni50   1.923       .  S
O43        Ni275   1.899   1_554  S
O44         Ni45   1.935       .  S
Ni45         O49   1.898       .  S
Ni45         O47   1.910       .  S
Ni45        O253   1.929   1_554  S
O46         Ni51   1.953       .  S
C48         O273   1.264       .  A
C48         C216   1.476       .  S
O49         C272   1.264   1_554  A
Ni51        O267   1.898       .  S
O53         Ni59   1.940       .  S
O53          C74   1.273       .  A
O54         Ni77   1.904       .  S
O54          C63   1.265       .  A
O55         Ni59   1.917       .  S
O55         Ni77   1.903       .  S
O55         Ni71   1.896       .  S
O55          H78   0.966       .  S
C56          O73   1.268       .  A
C56          O65   1.274       .  A
C56         C199   1.469       .  S
O57         Ni76   1.945       .  S
O57          C63   1.273       .  A
O58         Ni76   1.899       .  S
O58          C60   1.269       .  A
Ni59         O62   1.933       .  S
Ni59         O64   1.897       .  S
C60          O70   1.266       .  A
C60         C176   1.469       .  S
O61         Ni77   1.879       .  S
O61          C67   1.264       .  A
O62          C67   1.275       .  A
C63         C106   1.485       .  S
O64          C66   1.267       .  A
O65         Ni76   1.926       .  S
C66          O72   1.274       .  A
C66         C189   1.467       .  S
C67         C166   1.459       .  S
H68          O69   0.965       .  S
O69         Ni77   1.901       .  S
O69         Ni71   1.910       .  S
O69         Ni76   1.925       .  S
O70         Ni71   1.906       .  S
Ni71         O75   1.895       .  S
Ni71         O73   1.890       .  S
O72         Ni77   1.932       .  S
C74          O75   1.263       .  A
C74         C119   1.475       .  S
O79         Ni85   1.946       .  S
O79         C100   1.276       .  A
O80        Ni103   1.895       .  S
O80          C89   1.267       .  A
O81         Ni85   1.920       .  S
O81        Ni103   1.915       .  S
O81         Ni97   1.933       .  S
O81         H104   0.965       .  S
C82          O99   1.279       .  A
C82          O91   1.277       .  A
C82         C139   1.480       .  S
O83        Ni102   1.945       .  S
O83          C89   1.276       .  A
O84        Ni102   1.911       .  S
O84          C86   1.271       .  A
Ni85         O88   1.941       .  S
Ni85         O90   1.905       .  S
C86          O96   1.270       .  A
C86         C159   1.479       .  S
O87        Ni103   1.902       .  S
O87          C93   1.267       .  A
O88          C93   1.275       .  A
C89         C116   1.483       .  S
O90          C92   1.273       .  A
O91        Ni102   1.935       .  S
C92          O98   1.276       .  A
C92         C129   1.482       .  S
C93         C146   1.493       .  S
H94          O95   0.967       .  S
O95        Ni103   1.894       .  S
O95         Ni97   1.898       .  S
O95        Ni102   1.908       .  S
O96         Ni97   1.932       .  S
Ni97        O101   1.906       .  S
Ni97         O99   1.917       .  S
O98        Ni103   1.931       .  S
C100        O101   1.268       .  A
C100        C109   1.486       .  S
C105       Br112   1.928       .  S
C105       C1898   1.412   1_455  A
C105        C558   1.411       .  A
C106        C107   1.409   1_545  A
C106       C1001   1.412       .  A
C107       Br114   1.927       .  S
C107        C556   1.413       .  A
C108       Br113   1.929       .  S
C108        C555   1.413       .  A
C108       C1005   1.413       .  A
C109        C110   1.410       .  A
C109       C1900   1.413   1_455  A
C110       Br111   1.930       .  S
C110        C553   1.411       .  A
C115       Br122   1.931       .  S
C115        C116   1.413       .  A
C115        C120   1.408       .  A
C116        C117   1.416       .  A
C117       Br124   1.931       .  S
C117        C118   1.409       .  A
C118       Br123   1.931       .  S
C118        C119   1.407       .  A
C119        C120   1.409       .  A
C120       Br121   1.933       .  S
C125       Br132   1.931       .  S
C125        C126   1.412       .  A
C125        C130   1.400       .  A
C126       C1023   1.409       .  A
C127       Br134   1.928       .  S
C127        C128   1.414       .  A
C127       C1918   1.409   1_455  A
C128       Br133   1.930       .  S
C128        C129   1.416       .  A
C129       C1922   1.410       .  A
C130       Br131   1.935       .  S
C130       C1025   1.410       .  A
C135       Br142   1.929       .  S
C135        C136   1.414       .  A
C135        C140   1.409       .  A
C136       C1033   1.411       .  A
C137       Br144   1.930       .  S
C137        C138   1.407       .  A
C137       C1928   1.411   1_455  A
C138       Br143   1.930       .  S
C138        C139   1.410       .  A
C139       C1932   1.408   1_455  A
C140       Br141   1.928       .  S
C140       C1035   1.408       .  A
C145       Br152   1.925       .  S
C145        C146   1.417       .  A
C145        C150   1.415       .  A
C146        C147   1.413       .  A
C147       Br154   1.930       .  S
C147        C148   1.405       .  A
C148       Br153   1.934       .  S
C148        C149   1.411       .  A
C149        C150   1.408       .  A
C150       Br151   1.929       .  S
C155       Br162   1.929       .  S
C155        C156   1.412       .  A
C155        C160   1.410       .  A
C156        C157   1.413       .  A
C157       Br164   1.927       .  S
C157        C158   1.406       .  A
C158       Br163   1.928       .  S
C158        C159   1.405       .  A
C159        C160   1.410       .  A
C160       Br161   1.928       .  S
C165       Br172   1.935       .  S
C165        C166   1.409       .  A
C165        C170   1.396       .  A
C166       C1063   1.405       .  A
C167       Br174   1.930       .  S
C167        C168   1.405       .  A
C167       C1958   1.405   1_455  A
C168       Br173   1.932       .  S
C168        C169   1.414       .  A
C169       C1962   1.410       .  A
C170       Br171   1.934       .  S
C170       C1065   1.410       .  A
C175       Br182   1.934       .  S
C175        C176   1.418       .  A
C175        C180   1.405       .  A
C176       C1073   1.409       .  A
C177       Br184   1.938   1_655  S
C177        C178   1.397   1_655  A
C177       C1968   1.409       .  A
C178       Br183   1.931       .  S
C178        C179   1.411       .  A
C179       C1972   1.402   1_455  A
C180       Br181   1.931       .  S
C180       C1075   1.402       .  A
C185       Br192   1.932       .  S
C185        C186   1.408       .  A
C185        C190   1.401       .  A
C186        C187   1.416       .  A
C187       Br194   1.933       .  S
C187        C188   1.406       .  A
C188       Br193   1.929       .  S
C188        C189   1.406       .  A
C189        C190   1.410       .  A
C190       Br191   1.932       .  S
C195       Br202   1.928       .  S
C195        C196   1.407       .  A
C195        C200   1.406       .  A
C196        C197   1.409       .  A
C197       Br204   1.931       .  S
C197        C198   1.400       .  A
C198       Br203   1.932       .  S
C198        C199   1.408       .  A
C199        C200   1.413       .  A
C200       Br201   1.932       .  S
C205       Br212   1.927       .  S
C205        C206   1.407   1_565  A
C205        C658   1.408       .  A
C206       C2223   1.412   1_455  A
C207       Br214   1.928       .  S
C207       C1326   1.412   1_554  A
C207        C656   1.409       .  A
C208       Br213   1.931       .  S
C208        C209   1.409   1_554  A
C208        C655   1.409       .  A
C209       C1330   1.411       .  A
C210       Br211   1.928       .  S
C210        C653   1.408       .  A
C210       C2225   1.410   1_455  A
C215       Br222   1.931       .  S
C215        C216   1.411       .  A
C215        C220   1.410       .  A
C216        C441   1.408       .  A
C217       Br224   1.929       .  S
C217        C218   1.409       .  A
C217        C440   1.408   1_554  A
C218       Br223   1.932       .  S
C218        C219   1.413       .  A
C219        C444   1.409   1_554  A
C220       Br221   1.929       .  S
C220        C443   1.410       .  A
O225       Ni231   1.935       .  S
O225        C246   1.270       .  A
O226       Ni249   1.898       .  S
O227       Ni231   1.915       .  S
O227       Ni249   1.904       .  S
O227        H250   0.966   1_556  S
C228        O245   1.261       .  A
C228        O237   1.278       .  A
C228        C403   1.462       .  S
O229       Ni248   1.945       .  S
O229        C235   1.276       .  A
O230       Ni248   1.896       .  S
O230        C232   1.267       .  A
Ni231       O234   1.915       .  S
Ni231       O236   1.899       .  S
C232        O242   1.276       .  A
C232        C420   1.468       .  S
O233       Ni249   1.902       .  S
O233        C239   1.271       .  A
O234        C239   1.272       .  A
C235        C443   1.480       .  S
O236        C238   1.269       .  A
O237       Ni248   1.947       .  S
C238        O244   1.267       .  A
C238        C393   1.467       .  S
C239        C410   1.468       .  S
H240        O241   0.966       .  S
O241       Ni243   1.901       .  S
O241       Ni248   1.914       .  S
O242       Ni243   1.940       .  S
Ni243       O247   1.900       .  S
Ni243       O245   1.875       .  S
O244       Ni249   1.907       .  S
C246        C430   1.476       .  S
O251       Ni257   1.938       .  S
O251        C272   1.273       .  A
O252       Ni275   1.899       .  S
O253       Ni257   1.930       .  S
O253       Ni275   1.912       .  S
O253        H276   0.966       .  S
C254        O271   1.273       .  A
C254        O263   1.275       .  A
C254        C380   1.483       .  S
O255       Ni274   1.940       .  S
O255        C261   1.273       .  A
O256       Ni274   1.913       .  S
O256        C258   1.271       .  A
Ni257       O260   1.948       .  S
Ni257       O262   1.897       .  S
C258        O268   1.269       .  A
C258        C360   1.481       .  S
O259       Ni275   1.888       .  S
O259        C265   1.259       .  A
O260        C265   1.274       .  A
C261        C433   1.477       .  S
O262        C264   1.269       .  A
O263       Ni274   1.936       .  S
C264        O270   1.282       .  A
C264        C373   1.479       .  S
C265        C350   1.478       .  S
H266        O267   0.961       .  S
O267       Ni269   1.904       .  S
O267       Ni274   1.922       .  S
O268       Ni269   1.932       .  S
Ni269       O273   1.897       .  S
Ni269       O271   1.910       .  S
O270       Ni275   1.956       .  S
C272        C440   1.476       .  S
O277       Ni283   1.942       .  S
O277        C298   1.274       .  A
O278       Ni301   1.903       .  S
O278        C287   1.264       .  A
O279       Ni283   1.917       .  S
O279       Ni301   1.902       .  S
O279       Ni295   1.897       .  S
O279        H302   0.966       .  S
C280        O297   1.269       .  A
C280        O289   1.275       .  A
C280        C423   1.471       .  S
O281       Ni300   1.947       .  S
O281        C287   1.274       .  A
O282       Ni300   1.900       .  S
O282        C284   1.269       .  A
Ni283       O286   1.932       .  S
Ni283       O288   1.897       .  S
C284        O294   1.266       .  A
C284        C400   1.469       .  S
O285       Ni301   1.878       .  S
O285        C291   1.264       .  A
O286        C291   1.275       .  A
C287        C330   1.485       .  S
O288        C290   1.268       .  A
O289       Ni300   1.927       .  S
C290        O296   1.274       .  A
C290        C413   1.467       .  S
C291        C390   1.459       .  S
H292        O293   0.965       .  S
O293       Ni301   1.901       .  S
O293       Ni295   1.910       .  S
O293       Ni300   1.924       .  S
O294       Ni295   1.907       .  S
Ni295       O299   1.896       .  S
Ni295       O297   1.892       .  S
O296       Ni301   1.933       .  S
C298        O299   1.263       .  A
C298        C343   1.475       .  S
O303       Ni309   1.945       .  S
O303        C324   1.276       .  A
O304       Ni327   1.898       .  S
O304        C313   1.267       .  A
O305       Ni309   1.921       .  S
O305       Ni327   1.917       .  S
O305       Ni321   1.933       .  S
O305        H328   0.965       .  S
C306        O323   1.279       .  A
C306        O315   1.277       .  A
C306        C363   1.479       .  S
O307       Ni326   1.945       .  S
O307        C313   1.276       .  A
O308       Ni326   1.911       .  S
O308        C310   1.271       .  A
Ni309       O312   1.938       .  S
Ni309       O314   1.904       .  S
C310        O320   1.269       .  A
C310        C383   1.479       .  S
O311       Ni327   1.901       .  S
O311        C317   1.266       .  A
O312        C317   1.274       .  A
C313        C340   1.484       .  S
O314        C316   1.273       .  A
O315       Ni326   1.936       .  S
C316        O322   1.277       .  A
C316        C353   1.487       .  S
C317        C370   1.488       .  S
H318        O319   0.967       .  S
O319       Ni327   1.893       .  S
O319       Ni321   1.899       .  S
O319       Ni326   1.909       .  S
O320       Ni321   1.932       .  S
Ni321       O325   1.908       .  S
Ni321       O323   1.914       .  S
O322       Ni327   1.936       .  S
C324        O325   1.268       .  A
C324        C333   1.487       .  S
C329       Br336   1.928       .  S
C329       C2122   1.412   1_455  A
C329        C782   1.411       .  A
C330       C1225   1.412       .  A
C330        C331   1.408   1_545  A
C331       Br338   1.927       .  S
C331        C780   1.413       .  A
C332       Br337   1.929       .  S
C332        C779   1.413       .  A
C332       C1229   1.413       .  A
C333       C2124   1.413   1_455  A
C333        C334   1.411       .  A
C334       Br335   1.930       .  S
C334        C777   1.411       .  A
C339       Br346   1.930       .  S
C339        C340   1.412       .  A
C339        C344   1.408       .  A
C340        C341   1.416       .  A
C341       Br348   1.930       .  S
C341        C342   1.409       .  A
C342       Br347   1.931       .  S
C342        C343   1.407       .  A
C343        C344   1.409       .  A
C344       Br345   1.932       .  S
C349       Br356   1.931       .  S
C349        C350   1.411       .  A
C349        C354   1.401       .  A
C350       C1247   1.407       .  A
C351       Br358   1.929       .  S
C351       C2142   1.407   1_455  A
C351        C352   1.414       .  A
C352       Br357   1.929       .  S
C352        C353   1.418       .  A
C353       C2146   1.413       .  A
C354       Br355   1.937       .  S
C354       C1249   1.413       .  A
C359       Br366   1.929       .  S
C359        C360   1.413       .  A
C359        C364   1.408       .  A
C360       C1257   1.410       .  A
C361       Br368   1.930       .  S
C361       C2152   1.410   1_455  A
C361        C362   1.407       .  A
C362       Br367   1.930       .  S
C362        C363   1.411       .  A
C363       C2156   1.408   1_455  A
C364       Br365   1.929       .  S
C364       C1259   1.408       .  A
C369       Br376   1.925       .  S
C369        C370   1.415       .  A
C369        C374   1.414       .  A
C370        C371   1.410       .  A
C371       Br378   1.929       .  S
C371        C372   1.405       .  A
C372       Br377   1.931       .  S
C372        C373   1.411       .  A
C373        C374   1.408       .  A
C374       Br375   1.929       .  S
C379       Br386   1.929       .  S
C379        C380   1.412       .  A
C379        C384   1.409       .  A
C380        C381   1.414       .  A
C381       Br388   1.927       .  S
C381        C382   1.406       .  A
C382       Br387   1.927       .  S
C382        C383   1.405       .  A
C383        C384   1.409       .  A
C384       Br385   1.928       .  S
C389       Br396   1.936       .  S
C389        C390   1.410       .  A
C389        C394   1.396       .  A
C390       C1287   1.405       .  A
C391       Br398   1.930       .  S
C391       C2182   1.405   1_455  A
C391        C392   1.405       .  A
C392       Br397   1.931       .  S
C392        C393   1.415       .  A
C393       C2186   1.410       .  A
C394       Br395   1.935       .  S
C394       C1289   1.410       .  A
C399       Br406   1.934       .  S
C399        C400   1.417       .  A
C399        C404   1.407       .  A
C400       C1297   1.408       .  A
C401       Br408   1.937   1_655  S
C401       C2192   1.408       .  A
C401        C402   1.397   1_655  A
C402       Br407   1.931       .  S
C402        C403   1.411       .  A
C403       C2196   1.404   1_455  A
C404       Br405   1.930       .  S
C404       C1299   1.404       .  A
C409       Br416   1.933       .  S
C409        C410   1.407       .  A
C409        C414   1.402       .  A
C410        C411   1.415       .  A
C411       Br418   1.934       .  S
C411        C412   1.405       .  A
C412       Br417   1.929       .  S
C412        C413   1.406       .  A
C413        C414   1.412       .  A
C414       Br415   1.931       .  S
C419       Br426   1.928       .  S
C419        C420   1.408       .  A
C419        C424   1.408       .  A
C420        C421   1.409       .  A
C421       Br428   1.931       .  S
C421        C422   1.401       .  A
C422       Br427   1.931       .  S
C422        C423   1.408       .  A
C423        C424   1.414       .  A
C424       Br425   1.933       .  S
C429       Br436   1.928       .  S
C429        C430   1.407   1_565  A
C429        C882   1.408       .  A
C430       C1999   1.412   1_456  A
C431       Br438   1.928       .  S
C431       C1102   1.412       .  A
C431        C880   1.410       .  A
C432       Br437   1.930       .  S
C432        C879   1.410       .  A
C432        C433   1.409       .  A
C433       C1106   1.410       .  A
C434       Br435   1.928       .  S
C434        C877   1.408       .  A
C434       C2001   1.411   1_455  A
C439       Br446   1.931       .  S
C439        C440   1.410       .  A
C439        C444   1.409       .  A
C441       Br448   1.930       .  S
C441        C442   1.409       .  A
C442       Br447   1.932       .  S
C442        C443   1.413       .  A
C444       Br445   1.928       .  S
O449       Ni455   1.938       .  S
O449        C470   1.270       .  A
O450       Ni473   1.901       .  S
O450        C683   1.267       .  A
O451       Ni455   1.915       .  S
O451       Ni473   1.905       .  S
O451       Ni691   1.896       .  S
O451        H474   0.967       .  S
C452        O469   1.260       .  A
C452        O461   1.278       .  A
C452        C627   1.460       .  S
O453       Ni472   1.945       .  S
O453        C459   1.276       .  A
O454       Ni472   1.895       .  S
O454        C456   1.267       .  A
Ni455       O458   1.917       .  S
Ni455       O460   1.900       .  S
C456        O466   1.275       .  A
C456        C644   1.465       .  S
O457       Ni473   1.900       .  S
O457        C463   1.271       .  A
O458        C463   1.273       .  A
C459        O674   1.266   1_554  A
C459        C667   1.479       .  S
O460        C462   1.269       .  A
O461       Ni472   1.946       .  S
C462        O468   1.268       .  A
C462        C617   1.468       .  S
C463        C634   1.471       .  S
H464        O465   0.966       .  S
O465       Ni697   1.903   1_554  S
O465       Ni467   1.900       .  S
O465       Ni472   1.913       .  S
O466       Ni467   1.937       .  S
Ni467       O471   1.898       .  S
Ni467       O469   1.873       .  S
Ni467       O675   1.895   1_554  S
O468       Ni473   1.909       .  S
C470        O695   1.263       .  A
C470        C654   1.478       .  S
O471        C694   1.263   1_554  A
Ni473       O689   1.903       .  S
O475       Ni481   1.940       .  S
O475        C496   1.273       .  A
O476       Ni499   1.900       .  S
O476        C709   1.265       .  A
O477       Ni481   1.931       .  S
O477       Ni499   1.915       .  S
O477       Ni717   1.930       .  S
O477        H500   0.966       .  S
C478        O495   1.272       .  A
C478        O487   1.274       .  A
C478        C604   1.482       .  S
O479       Ni498   1.939       .  S
O479        C485   1.272       .  A
O480       Ni498   1.912       .  S
O480        C482   1.271       .  A
Ni481       O484   1.947       .  S
Ni481       O486   1.897       .  S
C482        O492   1.271       .  A
C482        C584   1.483       .  S
O483       Ni499   1.890       .  S
O483        C489   1.261       .  A
O484        C489   1.274       .  A
C485        O700   1.264   1_554  A
C485        C657   1.477   1_554  S
O486        C488   1.269       .  A
O487       Ni498   1.935       .  S
C488        O494   1.281       .  A
C488        C597   1.481       .  S
C489        C574   1.478       .  S
H490        O491   0.962       .  S
O491       Ni723   1.899   1_554  S
O491       Ni493   1.905       .  S
O491       Ni498   1.923       .  S
O492       Ni493   1.935       .  S
Ni493       O497   1.898       .  S
Ni493       O495   1.910       .  S
Ni493       O701   1.929   1_554  S
O494       Ni499   1.953       .  S
C496        O721   1.264       .  A
C496        C664   1.476       .  S
O497        C720   1.264   1_554  A
Ni499       O715   1.898       .  S
O501       Ni507   1.940       .  S
O501        C522   1.273       .  A
O502       Ni525   1.904       .  S
O502        C511   1.265       .  A
O503       Ni507   1.917       .  S
O503       Ni525   1.903       .  S
O503       Ni519   1.896       .  S
O503        H526   0.966       .  S
C504        O521   1.268       .  A
C504        O513   1.274       .  A
C504        C647   1.469       .  S
O505       Ni524   1.945       .  S
O505        C511   1.273       .  A
O506       Ni524   1.899       .  S
O506        C508   1.269       .  A
Ni507       O510   1.933       .  S
Ni507       O512   1.897       .  S
C508        O518   1.266       .  A
C508        C624   1.469       .  S
O509       Ni525   1.879       .  S
O509        C515   1.264       .  A
O510        C515   1.275       .  A
C511        C554   1.485       .  S
O512        C514   1.267       .  A
O513       Ni524   1.926       .  S
C514        O520   1.274       .  A
C514        C637   1.467       .  S
C515        C614   1.459       .  S
H516        O517   0.965       .  S
O517       Ni525   1.901       .  S
O517       Ni519   1.910       .  S
O517       Ni524   1.925       .  S
O518       Ni519   1.906       .  S
Ni519       O523   1.895       .  S
Ni519       O521   1.890       .  S
O520       Ni525   1.932       .  S
C522        O523   1.263       .  A
C522        C567   1.475       .  S
O527       Ni533   1.946       .  S
O527        C548   1.276       .  A
O528       Ni551   1.895       .  S
O528        C537   1.267       .  A
O529       Ni533   1.920       .  S
O529       Ni551   1.915       .  S
O529       Ni545   1.933       .  S
O529        H552   0.965       .  S
C530        O547   1.279       .  A
C530        O539   1.277       .  A
C530        C587   1.480       .  S
O531       Ni550   1.945       .  S
O531        C537   1.276       .  A
O532       Ni550   1.911       .  S
O532        C534   1.271       .  A
Ni533       O536   1.941       .  S
Ni533       O538   1.905       .  S
C534        O544   1.270       .  A
C534        C607   1.479       .  S
O535       Ni551   1.902       .  S
O535        C541   1.267       .  A
O536        C541   1.275       .  A
C537        C564   1.483       .  S
O538        C540   1.273       .  A
O539       Ni550   1.935       .  S
C540        O546   1.276       .  A
C540        C577   1.482       .  S
C541        C594   1.493       .  S
H542        O543   0.967       .  S
O543       Ni551   1.894       .  S
O543       Ni545   1.898       .  S
O543       Ni550   1.908       .  S
O544       Ni545   1.932       .  S
Ni545       O549   1.907       .  S
Ni545       O547   1.917       .  S
O546       Ni551   1.931       .  S
C548        O549   1.268       .  A
C548        C557   1.486       .  S
C553       Br560   1.928       .  S
C553       C2346   1.412   1_455  A
C554       C1449   1.412       .  A
C554        C555   1.409       .  A
C555       Br562   1.927       .  S
C556       Br561   1.929       .  S
C556       C1453   1.413       .  A
C557       C2348   1.413   1_455  A
C557        C558   1.410   1_565  A
C558       Br559   1.930       .  S
C563       Br570   1.931       .  S
C563        C564   1.413       .  A
C563        C568   1.408       .  A
C564        C565   1.416       .  A
C565       Br572   1.931       .  S
C565        C566   1.409       .  A
C566       Br571   1.931       .  S
C566        C567   1.407       .  A
C567        C568   1.409       .  A
C568       Br569   1.933       .  S
C573       Br580   1.931       .  S
C573        C574   1.412       .  A
C573        C578   1.400       .  A
C574       C1471   1.409       .  A
C575       Br582   1.928       .  S
C575       C2366   1.409   1_455  A
C575        C576   1.414       .  A
C576       Br581   1.930       .  S
C576        C577   1.416       .  A
C577       C2370   1.410       .  A
C578       Br579   1.935       .  S
C578       C1473   1.410       .  A
C583       Br590   1.929       .  S
C583        C584   1.414       .  A
C583        C588   1.409       .  A
C584       C1481   1.411       .  A
C585       Br592   1.930       .  S
C585       C2376   1.411   1_455  A
C585        C586   1.407       .  A
C586       Br591   1.930       .  S
C586        C587   1.410       .  A
C587       C2380   1.408   1_455  A
C588       Br589   1.928       .  S
C588       C1483   1.408       .  A
C593       Br600   1.925       .  S
C593        C594   1.417       .  A
C593        C598   1.415       .  A
C594        C595   1.413       .  A
C595       Br602   1.930       .  S
C595        C596   1.405       .  A
C596       Br601   1.934       .  S
C596        C597   1.411       .  A
C597        C598   1.408       .  A
C598       Br599   1.929       .  S
C603       Br610   1.929       .  S
C603        C604   1.412       .  A
C603        C608   1.410       .  A
C604        C605   1.413       .  A
C605       Br612   1.927       .  S
C605        C606   1.406       .  A
C606       Br611   1.928       .  S
C606        C607   1.405       .  A
C607        C608   1.410       .  A
C608       Br609   1.928       .  S
C613       Br620   1.935       .  S
C613        C614   1.409       .  A
C613        C618   1.396       .  A
C614       C1511   1.405       .  A
C615       Br622   1.930       .  S
C615       C2406   1.405   1_455  A
C615        C616   1.405       .  A
C616       Br621   1.932       .  S
C616        C617   1.414       .  A
C617       C2410   1.410       .  A
C618       Br619   1.934       .  S
C618       C1513   1.410       .  A
C623       Br630   1.934       .  S
C623        C624   1.418       .  A
C623        C628   1.405       .  A
C624       C1521   1.409       .  A
C625       Br632   1.938   1_655  S
C625       C2416   1.409       .  A
C625        C626   1.397   1_655  A
C626       Br631   1.931       .  S
C626        C627   1.411       .  A
C627       C2420   1.402   1_455  A
C628       Br629   1.931       .  S
C628       C1523   1.402       .  A
C633       Br640   1.932       .  S
C633        C634   1.408       .  A
C633        C638   1.401       .  A
C634        C635   1.416       .  A
C635       Br642   1.933       .  S
C635        C636   1.406       .  A
C636       Br641   1.929       .  S
C636        C637   1.406       .  A
C637        C638   1.410       .  A
C638       Br639   1.932       .  S
C643       Br650   1.928       .  S
C643        C644   1.407       .  A
C643        C648   1.406       .  A
C644        C645   1.409       .  A
C645       Br652   1.931       .  S
C645        C646   1.400       .  A
C646       Br651   1.932       .  S
C646        C647   1.408       .  A
C647        C648   1.413       .  A
C648       Br649   1.932       .  S
C653       Br660   1.927       .  S
C653        C654   1.407       .  A
C654       C2671   1.412   1_455  A
C655       Br662   1.928       .  S
C655       C1774   1.412   1_554  A
C656       Br661   1.931       .  S
C656        C657   1.409   1_544  A
C657       C1778   1.411       .  A
C658       Br659   1.928       .  S
C658       C2673   1.410   1_455  A
C663       Br670   1.931       .  S
C663        C664   1.411       .  A
C663        C668   1.410       .  A
C664        C889   1.408       .  A
C665       Br672   1.929       .  S
C665        C888   1.408   1_554  A
C665        C666   1.409       .  A
C666       Br671   1.932       .  S
C666        C667   1.413       .  A
C667        C892   1.409   1_554  A
C668       Br669   1.929       .  S
C668        C891   1.410       .  A
O673       Ni679   1.935       .  S
O673        C694   1.270       .  A
O674       Ni697   1.898       .  S
O675       Ni679   1.915       .  S
O675       Ni697   1.904       .  S
O675        H698   0.966   1_556  S
C676        O693   1.261       .  A
C676        O685   1.278       .  A
C676        C851   1.462       .  S
O677       Ni696   1.945       .  S
O677        C683   1.276       .  A
O678       Ni696   1.896       .  S
O678        C680   1.267       .  A
Ni679       O682   1.915       .  S
Ni679       O684   1.899       .  S
C680        O690   1.276       .  A
C680        C868   1.468       .  S
O681       Ni697   1.902       .  S
O681        C687   1.271       .  A
O682        C687   1.272       .  A
C683        C891   1.480       .  S
O684        C686   1.269       .  A
O685       Ni696   1.947       .  S
C686        O692   1.267       .  A
C686        C841   1.467       .  S
C687        C858   1.468       .  S
H688        O689   0.966       .  S
O689       Ni691   1.901       .  S
O689       Ni696   1.914       .  S
O690       Ni691   1.940       .  S
Ni691       O695   1.900       .  S
Ni691       O693   1.875       .  S
O692       Ni697   1.907       .  S
C694        C878   1.476       .  S
O699       Ni705   1.938       .  S
O699        C720   1.273       .  A
O700       Ni723   1.899       .  S
O701       Ni705   1.930       .  S
O701       Ni723   1.912       .  S
O701        H724   0.966       .  S
C702        O719   1.273       .  A
C702        O711   1.275       .  A
C702        C828   1.483       .  S
O703       Ni722   1.940       .  S
O703        C709   1.273       .  A
O704       Ni722   1.913       .  S
O704        C706   1.271       .  A
Ni705       O708   1.948       .  S
Ni705       O710   1.897       .  S
C706        O716   1.269       .  A
C706        C808   1.481       .  S
O707       Ni723   1.888       .  S
O707        C713   1.259       .  A
O708        C713   1.274       .  A
C709        C881   1.477       .  S
O710        C712   1.269       .  A
O711       Ni722   1.936       .  S
C712        O718   1.282       .  A
C712        C821   1.479       .  S
C713        C798   1.478       .  S
H714        O715   0.961       .  S
O715       Ni717   1.904       .  S
O715       Ni722   1.922       .  S
O716       Ni717   1.932       .  S
Ni717       O721   1.897       .  S
Ni717       O719   1.910       .  S
O718       Ni723   1.956       .  S
C720        C888   1.476       .  S
O725       Ni731   1.942       .  S
O725        C746   1.274       .  A
O726       Ni749   1.903       .  S
O726        C735   1.264       .  A
O727       Ni731   1.917       .  S
O727       Ni749   1.902       .  S
O727       Ni743   1.897       .  S
O727        H750   0.966       .  S
C728        O745   1.269       .  A
C728        O737   1.275       .  A
C728        C871   1.471       .  S
O729       Ni748   1.948       .  S
O729        C735   1.274       .  A
O730       Ni748   1.900       .  S
O730        C732   1.269       .  A
Ni731       O734   1.932       .  S
Ni731       O736   1.897       .  S
C732        O742   1.266       .  A
C732        C848   1.469       .  S
O733       Ni749   1.878       .  S
O733        C739   1.264       .  A
O734        C739   1.275       .  A
C735        C778   1.485       .  S
O736        C738   1.268       .  A
O737       Ni748   1.927       .  S
C738        O744   1.274       .  A
C738        C861   1.467       .  S
C739        C838   1.459       .  S
H740        O741   0.965       .  S
O741       Ni749   1.901       .  S
O741       Ni743   1.910       .  S
O741       Ni748   1.924       .  S
O742       Ni743   1.907       .  S
Ni743       O747   1.896       .  S
Ni743       O745   1.892       .  S
O744       Ni749   1.933       .  S
C746        O747   1.263       .  A
C746        C791   1.475       .  S
O751       Ni757   1.945       .  S
O751        C772   1.276       .  A
O752       Ni775   1.898       .  S
O752        C761   1.267       .  A
O753       Ni757   1.921       .  S
O753       Ni775   1.917       .  S
O753       Ni769   1.933       .  S
O753        H776   0.965       .  S
C754        O771   1.279       .  A
C754        O763   1.277       .  A
C754        C811   1.479       .  S
O755       Ni774   1.945       .  S
O755        C761   1.276       .  A
O756       Ni774   1.911       .  S
O756        C758   1.271       .  A
Ni757       O760   1.938       .  S
Ni757       O762   1.904       .  S
C758        O768   1.269       .  A
C758        C831   1.479       .  S
O759       Ni775   1.901       .  S
O759        C765   1.266       .  A
O760        C765   1.274       .  A
C761        C788   1.484       .  S
O762        C764   1.273       .  A
O763       Ni774   1.936       .  S
C764        O770   1.277       .  A
C764        C801   1.487       .  S
C765        C818   1.488       .  S
H766        O767   0.967       .  S
O767       Ni775   1.893       .  S
O767       Ni769   1.899       .  S
O767       Ni774   1.909       .  S
O768       Ni769   1.932       .  S
Ni769       O773   1.908       .  S
Ni769       O771   1.914       .  S
O770       Ni775   1.936       .  S
C772        O773   1.268       .  A
C772        C781   1.487       .  S
C777       Br784   1.928       .  S
C777       C2570   1.412   1_455  A
C778       C1673   1.412       .  A
C778        C779   1.408       .  A
C779       Br786   1.927       .  S
C780       Br785   1.929       .  S
C780       C1677   1.413       .  A
C781       C2572   1.413   1_455  A
C781        C782   1.411   1_565  A
C782       Br783   1.930       .  S
C787       Br794   1.930       .  S
C787        C788   1.412       .  A
C787        C792   1.408       .  A
C788        C789   1.416       .  A
C789       Br796   1.930       .  S
C789        C790   1.409       .  A
C790       Br795   1.931       .  S
C790        C791   1.407       .  A
C791        C792   1.409       .  A
C792       Br793   1.932       .  S
C797       Br804   1.931       .  S
C797        C798   1.411       .  A
C797        C802   1.401       .  A
C798       C1695   1.407       .  A
C799       Br806   1.929       .  S
C799       C2590   1.407   1_455  A
C799        C800   1.414       .  A
C800       Br805   1.929       .  S
C800        C801   1.418       .  A
C801       C2594   1.413       .  A
C802       Br803   1.937       .  S
C802       C1697   1.413       .  A
C807       Br814   1.929       .  S
C807        C808   1.413       .  A
C807        C812   1.408       .  A
C808       C1705   1.410       .  A
C809       Br816   1.930       .  S
C809       C2600   1.410   1_455  A
C809        C810   1.407       .  A
C810       Br815   1.930       .  S
C810        C811   1.411       .  A
C811       C2604   1.408   1_455  A
C812       Br813   1.929       .  S
C812       C1707   1.408       .  A
C817       Br824   1.925       .  S
C817        C818   1.415       .  A
C817        C822   1.414       .  A
C818        C819   1.410       .  A
C819       Br826   1.929       .  S
C819        C820   1.405       .  A
C820       Br825   1.931       .  S
C820        C821   1.411       .  A
C821        C822   1.408       .  A
C822       Br823   1.929       .  S
C827       Br834   1.929       .  S
C827        C828   1.412       .  A
C827        C832   1.409       .  A
C828        C829   1.414       .  A
C829       Br836   1.927       .  S
C829        C830   1.406       .  A
C830       Br835   1.927       .  S
C830        C831   1.405       .  A
C831        C832   1.409       .  A
C832       Br833   1.928       .  S
C837       Br844   1.936       .  S
C837        C838   1.410       .  A
C837        C842   1.396       .  A
C838       C1735   1.405       .  A
C839       Br846   1.930       .  S
C839       C2630   1.405   1_455  A
C839        C840   1.405       .  A
C840       Br845   1.931       .  S
C840        C841   1.415       .  A
C841       C2634   1.410       .  A
C842       Br843   1.935       .  S
C842       C1737   1.410       .  A
C847       Br854   1.934       .  S
C847        C848   1.417       .  A
C847        C852   1.407       .  A
C848       C1745   1.408       .  A
C849       Br856   1.937   1_655  S
C849       C2640   1.408       .  A
C849        C850   1.397   1_655  A
C850       Br855   1.931       .  S
C850        C851   1.411       .  A
C851       C2644   1.404   1_455  A
C852       Br853   1.930       .  S
C852       C1747   1.404       .  A
C857       Br864   1.933       .  S
C857        C858   1.407       .  A
C857        C862   1.402       .  A
C858        C859   1.415       .  A
C859       Br866   1.934       .  S
C859        C860   1.405       .  A
C860       Br865   1.929       .  S
C860        C861   1.406       .  A
C861        C862   1.412       .  A
C862       Br863   1.931       .  S
C867       Br874   1.928       .  S
C867        C868   1.408       .  A
C867        C872   1.408       .  A
C868        C869   1.409       .  A
C869       Br876   1.931       .  S
C869        C870   1.401       .  A
C870       Br875   1.931       .  S
C870        C871   1.408       .  A
C871        C872   1.414       .  A
C872       Br873   1.933       .  S
C877       Br884   1.928       .  S
C877        C878   1.407       .  A
C878       C2447   1.412   1_456  A
C879       Br886   1.928       .  S
C879       C1550   1.412       .  A
C880       Br885   1.930       .  S
C880        C881   1.409   1_545  A
C881       C1554   1.410       .  A
C882       Br883   1.928       .  S
C882       C2449   1.411   1_455  A
C887       Br894   1.931       .  S
C887        C888   1.410       .  A
C887        C892   1.409       .  A
C889       Br896   1.930       .  S
C889        C890   1.409       .  A
C890       Br895   1.932       .  S
C890        C891   1.413       .  A
C892       Br893   1.928       .  S
O897       Ni903   1.938       .  S
O897        C918   1.270       .  A
O898       Ni921   1.901       .  S
O898       C1131   1.267       .  A
O899       Ni903   1.915       .  S
O899       Ni921   1.905       .  S
O899      Ni1139   1.896       .  S
O899        H922   0.967       .  S
C900        O917   1.260       .  A
C900        O909   1.278       .  A
C900       C1075   1.460       .  S
O901       Ni920   1.945       .  S
O901        C907   1.276       .  A
O902       Ni920   1.895       .  S
O902        C904   1.267       .  A
Ni903       O906   1.917       .  S
Ni903       O908   1.900       .  S
C904        O914   1.275       .  A
C904       C1092   1.465       .  S
O905       Ni921   1.900       .  S
O905        C911   1.271       .  A
O906        C911   1.273       .  A
C907       O1122   1.266   1_554  A
C907       C1115   1.479       .  S
O908        C910   1.269       .  A
O909       Ni920   1.946       .  S
C910        O916   1.268       .  A
C910       C1065   1.468       .  S
C911       C1082   1.471       .  S
H912        O913   0.966       .  S
O913      Ni1145   1.903   1_554  S
O913       Ni915   1.900       .  S
O913       Ni920   1.913       .  S
O914       Ni915   1.937       .  S
Ni915       O919   1.898       .  S
Ni915       O917   1.873       .  S
Ni915      O1123   1.895   1_554  S
O916       Ni921   1.909       .  S
C918       O1143   1.263       .  A
C918       C1102   1.478       .  S
O919       C1142   1.263   1_554  A
Ni921      O1137   1.903       .  S
O923       Ni929   1.940       .  S
O923        C944   1.273       .  A
O924       Ni947   1.900       .  S
O924       C1157   1.265       .  A
O925       Ni929   1.931       .  S
O925       Ni947   1.915       .  S
O925      Ni1165   1.930       .  S
O925        H948   0.966       .  S
C926        O943   1.272       .  A
C926        O935   1.274       .  A
C926       C1052   1.482       .  S
O927       Ni946   1.939       .  S
O927        C933   1.272       .  A
O928       Ni946   1.912       .  S
O928        C930   1.271       .  A
Ni929       O932   1.947       .  S
Ni929       O934   1.897       .  S
C930        O940   1.271       .  A
C930       C1032   1.483       .  S
O931       Ni947   1.890       .  S
O931        C937   1.261       .  A
O932        C937   1.274       .  A
C933       O1148   1.264   1_554  A
C933       C1105   1.477   1_554  S
O934        C936   1.269       .  A
O935       Ni946   1.935       .  S
C936        O942   1.281       .  A
C936       C1045   1.481       .  S
C937       C1022   1.478       .  S
H938        O939   0.962       .  S
O939      Ni1171   1.899   1_554  S
O939       Ni941   1.905       .  S
O939       Ni946   1.923       .  S
O940       Ni941   1.935       .  S
Ni941       O945   1.898       .  S
Ni941       O943   1.910       .  S
Ni941      O1149   1.929   1_554  S
O942       Ni947   1.953       .  S
C944       O1169   1.264       .  A
C944       C1112   1.476       .  S
O945       C1168   1.264   1_554  A
Ni947      O1163   1.898       .  S
O949       Ni955   1.940       .  S
O949        C970   1.273       .  A
O950       Ni973   1.904       .  S
O950        C959   1.265       .  A
O951       Ni955   1.917       .  S
O951       Ni973   1.903       .  S
O951       Ni967   1.896       .  S
O951        H974   0.966       .  S
C952        O969   1.268       .  A
C952        O961   1.274       .  A
C952       C1095   1.469       .  S
O953       Ni972   1.945       .  S
O953        C959   1.273       .  A
O954       Ni972   1.899       .  S
O954        C956   1.269       .  A
Ni955       O958   1.933       .  S
Ni955       O960   1.897       .  S
C956        O966   1.266       .  A
C956       C1072   1.469       .  S
O957       Ni973   1.879       .  S
O957        C963   1.264       .  A
O958        C963   1.275       .  A
C959       C1002   1.485       .  S
O960        C962   1.267       .  A
O961       Ni972   1.926       .  S
C962        O968   1.274       .  A
C962       C1085   1.467       .  S
C963       C1062   1.459       .  S
H964        O965   0.965       .  S
O965       Ni973   1.901       .  S
O965       Ni967   1.910       .  S
O965       Ni972   1.925       .  S
O966       Ni967   1.906       .  S
Ni967       O971   1.895       .  S
Ni967       O969   1.890       .  S
O968       Ni973   1.932       .  S
C970        O971   1.263       .  A
C970       C1015   1.475       .  S
O975       Ni981   1.946       .  S
O975        C996   1.276       .  A
O976       Ni999   1.895       .  S
O976        C985   1.267       .  A
O977       Ni981   1.920       .  S
O977       Ni999   1.915       .  S
O977       Ni993   1.933       .  S
O977       H1000   0.965       .  S
C978        O995   1.279       .  A
C978        O987   1.277       .  A
C978       C1035   1.480       .  S
O979       Ni998   1.945       .  S
O979        C985   1.276       .  A
O980       Ni998   1.911       .  S
O980        C982   1.271       .  A
Ni981       O984   1.941       .  S
Ni981       O986   1.905       .  S
C982        O992   1.270       .  A
C982       C1055   1.479       .  S
O983       Ni999   1.902       .  S
O983        C989   1.267       .  A
O984        C989   1.275       .  A
C985       C1012   1.483       .  S
O986        C988   1.273       .  A
O987       Ni998   1.935       .  S
C988        O994   1.276       .  A
C988       C1025   1.482       .  S
C989       C1042   1.493       .  S
H990        O991   0.967       .  S
O991       Ni999   1.894       .  S
O991       Ni993   1.898       .  S
O991       Ni998   1.908       .  S
O992       Ni993   1.932       .  S
Ni993       O997   1.906       .  S
Ni993       O995   1.917       .  S
O994       Ni999   1.931       .  S
C996        O997   1.268       .  A
C996       C1005   1.486       .  S
C1001     Br1008   1.928       .  S
C1001      C1454   1.411       .  A
C1002      C1897   1.412       .  A
C1002      C1003   1.409   1_545  A
C1003     Br1010   1.927       .  S
C1003      C1452   1.413       .  A
C1004     Br1009   1.929       .  S
C1004      C1451   1.413       .  A
C1004      C1901   1.413       .  A
C1005      C1006   1.410       .  A
C1006     Br1007   1.930       .  S
C1006      C1449   1.411       .  A
C1011     Br1018   1.931       .  S
C1011      C1012   1.413       .  A
C1011      C1016   1.408       .  A
C1012      C1013   1.416       .  A
C1013     Br1020   1.931       .  S
C1013      C1014   1.409       .  A
C1014     Br1019   1.931       .  S
C1014      C1015   1.407       .  A
C1015      C1016   1.409       .  A
C1016     Br1017   1.933       .  S
C1021     Br1028   1.931       .  S
C1021      C1022   1.412       .  A
C1021      C1026   1.400       .  A
C1022      C1919   1.409       .  A
C1023     Br1030   1.928       .  S
C1023      C1024   1.414       .  A
C1024     Br1029   1.930       .  S
C1024      C1025   1.416       .  A
C1026     Br1027   1.935       .  S
C1026      C1921   1.410       .  A
C1031     Br1038   1.929       .  S
C1031      C1032   1.414       .  A
C1031      C1036   1.409       .  A
C1032      C1929   1.411       .  A
C1033     Br1040   1.930       .  S
C1033      C1034   1.407       .  A
C1034     Br1039   1.930       .  S
C1034      C1035   1.410       .  A
C1036     Br1037   1.928       .  S
C1036      C1931   1.408       .  A
C1041     Br1048   1.925       .  S
C1041      C1042   1.417       .  A
C1041      C1046   1.415       .  A
C1042      C1043   1.413       .  A
C1043     Br1050   1.930       .  S
C1043      C1044   1.405       .  A
C1044     Br1049   1.934       .  S
C1044      C1045   1.411       .  A
C1045      C1046   1.408       .  A
C1046     Br1047   1.929       .  S
C1051     Br1058   1.929       .  S
C1051      C1052   1.412       .  A
C1051      C1056   1.410       .  A
C1052      C1053   1.413       .  A
C1053     Br1060   1.927       .  S
C1053      C1054   1.406       .  A
C1054     Br1059   1.928       .  S
C1054      C1055   1.405       .  A
C1055      C1056   1.410       .  A
C1056     Br1057   1.928       .  S
C1061     Br1068   1.935       .  S
C1061      C1062   1.409       .  A
C1061      C1066   1.396       .  A
C1062      C1959   1.405       .  A
C1063     Br1070   1.930       .  S
C1063      C1064   1.405       .  A
C1064     Br1069   1.932       .  S
C1064      C1065   1.414       .  A
C1066     Br1067   1.934       .  S
C1066      C1961   1.410       .  A
C1071     Br1078   1.934       .  S
C1071      C1072   1.418       .  A
C1071      C1076   1.405       .  A
C1072      C1969   1.409       .  A
C1073     Br1080   1.938       .  S
C1073      C1074   1.397       .  A
C1074     Br1079   1.931       .  S
C1074      C1075   1.411       .  A
C1076     Br1077   1.931       .  S
C1076      C1971   1.402       .  A
C1081     Br1088   1.932       .  S
C1081      C1082   1.408       .  A
C1081      C1086   1.401       .  A
C1082      C1083   1.416       .  A
C1083     Br1090   1.933       .  S
C1083      C1084   1.406       .  A
C1084     Br1089   1.929       .  S
C1084      C1085   1.406       .  A
C1085      C1086   1.410       .  A
C1086     Br1087   1.932       .  S
C1091     Br1098   1.928       .  S
C1091      C1092   1.407       .  A
C1091      C1096   1.406       .  A
C1092      C1093   1.409       .  A
C1093     Br1100   1.931       .  S
C1093      C1094   1.400       .  A
C1094     Br1099   1.932       .  S
C1094      C1095   1.408       .  A
C1095      C1096   1.413       .  A
C1096     Br1097   1.932       .  S
C1101     Br1108   1.927       .  S
C1101      C1102   1.407   1_565  A
C1101      C1554   1.408       .  A
C1103     Br1110   1.928       .  S
C1103      C2222   1.412   1_554  A
C1103      C1552   1.409       .  A
C1104     Br1109   1.931       .  S
C1104      C1551   1.409       .  A
C1104      C1105   1.409   1_554  A
C1105      C2226   1.411       .  A
C1106     Br1107   1.928       .  S
C1106      C1549   1.408       .  A
C1111     Br1118   1.931       .  S
C1111      C1112   1.411       .  A
C1111      C1116   1.410       .  A
C1112      C1337   1.408       .  A
C1113     Br1120   1.929       .  S
C1113      C1336   1.408   1_554  A
C1113      C1114   1.409       .  A
C1114     Br1119   1.932       .  S
C1114      C1115   1.413       .  A
C1115      C1340   1.409   1_554  A
C1116     Br1117   1.929       .  S
C1116      C1339   1.410       .  A
O1121     Ni1127   1.935       .  S
O1121      C1142   1.270       .  A
O1122     Ni1145   1.898       .  S
O1123     Ni1127   1.915       .  S
O1123     Ni1145   1.904       .  S
O1123      H1146   0.966   1_556  S
C1124      O1141   1.261       .  A
C1124      O1133   1.278       .  A
C1124      C1299   1.462       .  S
O1125     Ni1144   1.945       .  S
O1125      C1131   1.276       .  A
O1126     Ni1144   1.896       .  S
O1126      C1128   1.267       .  A
Ni1127     O1130   1.915       .  S
Ni1127     O1132   1.899       .  S
C1128      O1138   1.276       .  A
C1128      C1316   1.468       .  S
O1129     Ni1145   1.902       .  S
O1129      C1135   1.271       .  A
O1130      C1135   1.272       .  A
C1131      C1339   1.480       .  S
O1132      C1134   1.269       .  A
O1133     Ni1144   1.947       .  S
C1134      O1140   1.267       .  A
C1134      C1289   1.467       .  S
C1135      C1306   1.468       .  S
H1136      O1137   0.966       .  S
O1137     Ni1139   1.901       .  S
O1137     Ni1144   1.914       .  S
O1138     Ni1139   1.940       .  S
Ni1139     O1143   1.900       .  S
Ni1139     O1141   1.875       .  S
O1140     Ni1145   1.907       .  S
C1142      C1326   1.476       .  S
O1147     Ni1153   1.938       .  S
O1147      C1168   1.273       .  A
O1148     Ni1171   1.899       .  S
O1149     Ni1153   1.930       .  S
O1149     Ni1171   1.912       .  S
O1149      H1172   0.966       .  S
C1150      O1167   1.273       .  A
C1150      O1159   1.275       .  A
C1150      C1276   1.483       .  S
O1151     Ni1170   1.940       .  S
O1151      C1157   1.273       .  A
O1152     Ni1170   1.913       .  S
O1152      C1154   1.271       .  A
Ni1153     O1156   1.948       .  S
Ni1153     O1158   1.897       .  S
C1154      O1164   1.269       .  A
C1154      C1256   1.481       .  S
O1155     Ni1171   1.888       .  S
O1155      C1161   1.259       .  A
O1156      C1161   1.274       .  A
C1157      C1329   1.477       .  S
O1158      C1160   1.269       .  A
O1159     Ni1170   1.936       .  S
C1160      O1166   1.282       .  A
C1160      C1269   1.479       .  S
C1161      C1246   1.478       .  S
H1162      O1163   0.961       .  S
O1163     Ni1165   1.904       .  S
O1163     Ni1170   1.922       .  S
O1164     Ni1165   1.932       .  S
Ni1165     O1169   1.897       .  S
Ni1165     O1167   1.910       .  S
O1166     Ni1171   1.956       .  S
C1168      C1336   1.476       .  S
O1173     Ni1179   1.942       .  S
O1173      C1194   1.274       .  A
O1174     Ni1197   1.903       .  S
O1174      C1183   1.264       .  A
O1175     Ni1179   1.917       .  S
O1175     Ni1197   1.902       .  S
O1175     Ni1191   1.897       .  S
O1175      H1198   0.966       .  S
C1176      O1193   1.269       .  A
C1176      O1185   1.275       .  A
C1176      C1319   1.471       .  S
O1177     Ni1196   1.948       .  S
O1177      C1183   1.274       .  A
O1178     Ni1196   1.900       .  S
O1178      C1180   1.269       .  A
Ni1179     O1182   1.932       .  S
Ni1179     O1184   1.897       .  S
C1180      O1190   1.266       .  A
C1180      C1296   1.469       .  S
O1181     Ni1197   1.878       .  S
O1181      C1187   1.264       .  A
O1182      C1187   1.275       .  A
C1183      C1226   1.485       .  S
O1184      C1186   1.268       .  A
O1185     Ni1196   1.927       .  S
C1186      O1192   1.274       .  A
C1186      C1309   1.467       .  S
C1187      C1286   1.459       .  S
H1188      O1189   0.965       .  S
O1189     Ni1197   1.901       .  S
O1189     Ni1191   1.910       .  S
O1189     Ni1196   1.924       .  S
O1190     Ni1191   1.907       .  S
Ni1191     O1195   1.896       .  S
Ni1191     O1193   1.892       .  S
O1192     Ni1197   1.933       .  S
C1194      O1195   1.263       .  A
C1194      C1239   1.475       .  S
O1199     Ni1205   1.945       .  S
O1199      C1220   1.276       .  A
O1200     Ni1223   1.898       .  S
O1200      C1209   1.267       .  A
O1201     Ni1205   1.921       .  S
O1201     Ni1223   1.917       .  S
O1201     Ni1217   1.933       .  S
O1201      H1224   0.965       .  S
C1202      O1219   1.279       .  A
C1202      O1211   1.277       .  A
C1202      C1259   1.479       .  S
O1203     Ni1222   1.945       .  S
O1203      C1209   1.276       .  A
O1204     Ni1222   1.911       .  S
O1204      C1206   1.271       .  A
Ni1205     O1208   1.938       .  S
Ni1205     O1210   1.904       .  S
C1206      O1216   1.269       .  A
C1206      C1279   1.479       .  S
O1207     Ni1223   1.901       .  S
O1207      C1213   1.266       .  A
O1208      C1213   1.274       .  A
C1209      C1236   1.484       .  S
O1210      C1212   1.273       .  A
O1211     Ni1222   1.936       .  S
C1212      O1218   1.277       .  A
C1212      C1249   1.487       .  S
C1213      C1266   1.488       .  S
H1214      O1215   0.967       .  S
O1215     Ni1223   1.893       .  S
O1215     Ni1217   1.899       .  S
O1215     Ni1222   1.909       .  S
O1216     Ni1217   1.932       .  S
Ni1217     O1221   1.908       .  S
Ni1217     O1219   1.914       .  S
O1218     Ni1223   1.936       .  S
C1220      O1221   1.268       .  A
C1220      C1229   1.487       .  S
C1225     Br1232   1.928       .  S
C1225      C1678   1.411       .  A
C1226      C2121   1.412       .  A
C1226      C1227   1.408   1_545  A
C1227     Br1234   1.927       .  S
C1227      C1676   1.413       .  A
C1228     Br1233   1.929       .  S
C1228      C1675   1.413       .  A
C1228      C2125   1.413       .  A
C1229      C1230   1.411       .  A
C1230     Br1231   1.930       .  S
C1230      C1673   1.411       .  A
C1235     Br1242   1.930       .  S
C1235      C1236   1.412       .  A
C1235      C1240   1.408       .  A
C1236      C1237   1.416       .  A
C1237     Br1244   1.930       .  S
C1237      C1238   1.409       .  A
C1238     Br1243   1.931       .  S
C1238      C1239   1.407       .  A
C1239      C1240   1.409       .  A
C1240     Br1241   1.932       .  S
C1245     Br1252   1.931       .  S
C1245      C1246   1.411       .  A
C1245      C1250   1.401       .  A
C1246      C2143   1.407       .  A
C1247     Br1254   1.929       .  S
C1247      C1248   1.414       .  A
C1248     Br1253   1.929       .  S
C1248      C1249   1.418       .  A
C1250     Br1251   1.937       .  S
C1250      C2145   1.413       .  A
C1255     Br1262   1.929       .  S
C1255      C1256   1.413       .  A
C1255      C1260   1.408       .  A
C1256      C2153   1.410       .  A
C1257     Br1264   1.930       .  S
C1257      C1258   1.407       .  A
C1258     Br1263   1.930       .  S
C1258      C1259   1.411       .  A
C1260     Br1261   1.929       .  S
C1260      C2155   1.408       .  A
C1265     Br1272   1.925       .  S
C1265      C1266   1.415       .  A
C1265      C1270   1.414       .  A
C1266      C1267   1.410       .  A
C1267     Br1274   1.929       .  S
C1267      C1268   1.405       .  A
C1268     Br1273   1.931       .  S
C1268      C1269   1.411       .  A
C1269      C1270   1.408       .  A
C1270     Br1271   1.929       .  S
C1275     Br1282   1.929       .  S
C1275      C1276   1.412       .  A
C1275      C1280   1.409       .  A
C1276      C1277   1.414       .  A
C1277     Br1284   1.927       .  S
C1277      C1278   1.406       .  A
C1278     Br1283   1.927       .  S
C1278      C1279   1.405       .  A
C1279      C1280   1.409       .  A
C1280     Br1281   1.928       .  S
C1285     Br1292   1.936       .  S
C1285      C1286   1.410       .  A
C1285      C1290   1.395       .  A
C1286      C2183   1.405       .  A
C1287     Br1294   1.930       .  S
C1287      C1288   1.405       .  A
C1288     Br1293   1.931       .  S
C1288      C1289   1.415       .  A
C1290     Br1291   1.935       .  S
C1290      C2185   1.410       .  A
C1295     Br1302   1.934       .  S
C1295      C1296   1.417       .  A
C1295      C1300   1.407       .  A
C1296      C2193   1.408       .  A
C1297     Br1304   1.937       .  S
C1297      C1298   1.397       .  A
C1298     Br1303   1.931       .  S
C1298      C1299   1.411       .  A
C1300     Br1301   1.930       .  S
C1300      C2195   1.404       .  A
C1305     Br1312   1.933       .  S
C1305      C1306   1.407       .  A
C1305      C1310   1.402       .  A
C1306      C1307   1.415       .  A
C1307     Br1314   1.934       .  S
C1307      C1308   1.405       .  A
C1308     Br1313   1.929       .  S
C1308      C1309   1.406       .  A
C1309      C1310   1.412       .  A
C1310     Br1311   1.931       .  S
C1315     Br1322   1.928       .  S
C1315      C1316   1.408       .  A
C1315      C1320   1.408       .  A
C1316      C1317   1.409       .  A
C1317     Br1324   1.931       .  S
C1317      C1318   1.401       .  A
C1318     Br1323   1.931       .  S
C1318      C1319   1.408       .  A
C1319      C1320   1.414       .  A
C1320     Br1321   1.933       .  S
C1325     Br1332   1.928       .  S
C1325      C1326   1.407   1_565  A
C1325      C1778   1.408       .  A
C1327     Br1334   1.928       .  S
C1327      C1998   1.412       .  A
C1327      C1776   1.410       .  A
C1328     Br1333   1.930       .  S
C1328      C1775   1.410       .  A
C1328      C1329   1.409       .  A
C1329      C2002   1.410       .  A
C1330     Br1331   1.928       .  S
C1330      C1773   1.408       .  A
C1335     Br1342   1.931       .  S
C1335      C1336   1.410       .  A
C1335      C1340   1.409       .  A
C1337     Br1344   1.930       .  S
C1337      C1338   1.409       .  A
C1338     Br1343   1.932       .  S
C1338      C1339   1.413       .  A
C1340     Br1341   1.928       .  S
O1345     Ni1351   1.938       .  S
O1345      C1366   1.270       .  A
O1346     Ni1369   1.901       .  S
O1346      C1579   1.267       .  A
O1347     Ni1351   1.915       .  S
O1347     Ni1369   1.905       .  S
O1347     Ni1587   1.896       .  S
O1347      H1370   0.967       .  S
C1348      O1365   1.260       .  A
C1348      O1357   1.278       .  A
C1348      C1523   1.460       .  S
O1349     Ni1368   1.945       .  S
O1349      C1355   1.276       .  A
O1350     Ni1368   1.895       .  S
O1350      C1352   1.267       .  A
Ni1351     O1354   1.917       .  S
Ni1351     O1356   1.900       .  S
C1352      O1362   1.275       .  A
C1352      C1540   1.465       .  S
O1353     Ni1369   1.900       .  S
O1353      C1359   1.271       .  A
O1354      C1359   1.273       .  A
C1355      O1570   1.266   1_554  A
C1355      C1563   1.479       .  S
O1356      C1358   1.269       .  A
O1357     Ni1368   1.946       .  S
C1358      O1364   1.268       .  A
C1358      C1513   1.468       .  S
C1359      C1530   1.471       .  S
H1360      O1361   0.966       .  S
O1361     Ni1593   1.903   1_554  S
O1361     Ni1363   1.900       .  S
O1361     Ni1368   1.913       .  S
O1362     Ni1363   1.937       .  S
Ni1363     O1367   1.898       .  S
Ni1363     O1365   1.873       .  S
Ni1363     O1571   1.895   1_554  S
O1364     Ni1369   1.909       .  S
C1366      O1591   1.263       .  A
C1366      C1550   1.478       .  S
O1367      C1590   1.263   1_554  A
Ni1369     O1585   1.903       .  S
O1371     Ni1377   1.940       .  S
O1371      C1392   1.273       .  A
O1372     Ni1395   1.900       .  S
O1372      C1605   1.265       .  A
O1373     Ni1377   1.931       .  S
O1373     Ni1395   1.915       .  S
O1373     Ni1613   1.930       .  S
O1373      H1396   0.966       .  S
C1374      O1391   1.272       .  A
C1374      O1383   1.274       .  A
C1374      C1500   1.482       .  S
O1375     Ni1394   1.939       .  S
O1375      C1381   1.272       .  A
O1376     Ni1394   1.912       .  S
O1376      C1378   1.271       .  A
Ni1377     O1380   1.947       .  S
Ni1377     O1382   1.897       .  S
C1378      O1388   1.271       .  A
C1378      C1480   1.483       .  S
O1379     Ni1395   1.890       .  S
O1379      C1385   1.261       .  A
O1380      C1385   1.274       .  A
C1381      O1596   1.264   1_554  A
C1381      C1553   1.477   1_554  S
O1382      C1384   1.269       .  A
O1383     Ni1394   1.935       .  S
C1384      O1390   1.281       .  A
C1384      C1493   1.481       .  S
C1385      C1470   1.478       .  S
H1386      O1387   0.962       .  S
O1387     Ni1619   1.899   1_554  S
O1387     Ni1389   1.905       .  S
O1387     Ni1394   1.923       .  S
O1388     Ni1389   1.935       .  S
Ni1389     O1393   1.898       .  S
Ni1389     O1391   1.910       .  S
Ni1389     O1597   1.929   1_554  S
O1390     Ni1395   1.953       .  S
C1392      O1617   1.264       .  A
C1392      C1560   1.476       .  S
O1393      C1616   1.264   1_554  A
Ni1395     O1611   1.898       .  S
O1397     Ni1403   1.940       .  S
O1397      C1418   1.273       .  A
O1398     Ni1421   1.904       .  S
O1398      C1407   1.265       .  A
O1399     Ni1403   1.917       .  S
O1399     Ni1421   1.903       .  S
O1399     Ni1415   1.896       .  S
O1399      H1422   0.966       .  S
C1400      O1417   1.268       .  A
C1400      O1409   1.274       .  A
C1400      C1543   1.469       .  S
O1401     Ni1420   1.945       .  S
O1401      C1407   1.273       .  A
O1402     Ni1420   1.899       .  S
O1402      C1404   1.269       .  A
Ni1403     O1406   1.933       .  S
Ni1403     O1408   1.897       .  S
C1404      O1414   1.266       .  A
C1404      C1520   1.469       .  S
O1405     Ni1421   1.879       .  S
O1405      C1411   1.264       .  A
O1406      C1411   1.275       .  A
C1407      C1450   1.485       .  S
O1408      C1410   1.267       .  A
O1409     Ni1420   1.926       .  S
C1410      O1416   1.274       .  A
C1410      C1533   1.467       .  S
C1411      C1510   1.459       .  S
H1412      O1413   0.965       .  S
O1413     Ni1421   1.901       .  S
O1413     Ni1415   1.910       .  S
O1413     Ni1420   1.925       .  S
O1414     Ni1415   1.906       .  S
Ni1415     O1419   1.895       .  S
Ni1415     O1417   1.890       .  S
O1416     Ni1421   1.932       .  S
C1418      O1419   1.263       .  A
C1418      C1463   1.475       .  S
O1423     Ni1429   1.946       .  S
O1423      C1444   1.276       .  A
O1424     Ni1447   1.895       .  S
O1424      C1433   1.267       .  A
O1425     Ni1429   1.920       .  S
O1425     Ni1447   1.915       .  S
O1425     Ni1441   1.933       .  S
O1425      H1448   0.965       .  S
C1426      O1443   1.279       .  A
C1426      O1435   1.277       .  A
C1426      C1483   1.480       .  S
O1427     Ni1446   1.945       .  S
O1427      C1433   1.276       .  A
O1428     Ni1446   1.911       .  S
O1428      C1430   1.271       .  A
Ni1429     O1432   1.941       .  S
Ni1429     O1434   1.905       .  S
C1430      O1440   1.270       .  A
C1430      C1503   1.479       .  S
O1431     Ni1447   1.902       .  S
O1431      C1437   1.267       .  A
O1432      C1437   1.275       .  A
C1433      C1460   1.483       .  S
O1434      C1436   1.273       .  A
O1435     Ni1446   1.935       .  S
C1436      O1442   1.276       .  A
C1436      C1473   1.482       .  S
C1437      C1490   1.493       .  S
H1438      O1439   0.967       .  S
O1439     Ni1447   1.894       .  S
O1439     Ni1441   1.898       .  S
O1439     Ni1446   1.908       .  S
O1440     Ni1441   1.932       .  S
Ni1441     O1445   1.906       .  S
Ni1441     O1443   1.917       .  S
O1442     Ni1447   1.931       .  S
C1444      O1445   1.268       .  A
C1444      C1453   1.486       .  S
C1449     Br1456   1.928       .  S
C1450      C2345   1.412       .  A
C1450      C1451   1.409       .  A
C1451     Br1458   1.927       .  S
C1452     Br1457   1.929       .  S
C1452      C2349   1.413       .  A
C1453      C1454   1.410   1_565  A
C1454     Br1455   1.930       .  S
C1459     Br1466   1.931       .  S
C1459      C1460   1.413       .  A
C1459      C1464   1.408       .  A
C1460      C1461   1.416       .  A
C1461     Br1468   1.931       .  S
C1461      C1462   1.409       .  A
C1462     Br1467   1.931       .  S
C1462      C1463   1.407       .  A
C1463      C1464   1.409       .  A
C1464     Br1465   1.933       .  S
C1469     Br1476   1.931       .  S
C1469      C1470   1.412       .  A
C1469      C1474   1.400       .  A
C1470      C2367   1.409       .  A
C1471     Br1478   1.928       .  S
C1471      C1472   1.414       .  A
C1472     Br1477   1.930       .  S
C1472      C1473   1.416       .  A
C1474     Br1475   1.935       .  S
C1474      C2369   1.410       .  A
C1479     Br1486   1.929       .  S
C1479      C1480   1.414       .  A
C1479      C1484   1.409       .  A
C1480      C2377   1.411       .  A
C1481     Br1488   1.930       .  S
C1481      C1482   1.407       .  A
C1482     Br1487   1.930       .  S
C1482      C1483   1.410       .  A
C1484     Br1485   1.928       .  S
C1484      C2379   1.408       .  A
C1489     Br1496   1.925       .  S
C1489      C1490   1.417       .  A
C1489      C1494   1.415       .  A
C1490      C1491   1.413       .  A
C1491     Br1498   1.930       .  S
C1491      C1492   1.405       .  A
C1492     Br1497   1.934       .  S
C1492      C1493   1.411       .  A
C1493      C1494   1.408       .  A
C1494     Br1495   1.929       .  S
C1499     Br1506   1.929       .  S
C1499      C1500   1.412       .  A
C1499      C1504   1.410       .  A
C1500      C1501   1.413       .  A
C1501     Br1508   1.927       .  S
C1501      C1502   1.406       .  A
C1502     Br1507   1.928       .  S
C1502      C1503   1.405       .  A
C1503      C1504   1.410       .  A
C1504     Br1505   1.928       .  S
C1509     Br1516   1.935       .  S
C1509      C1510   1.409       .  A
C1509      C1514   1.396       .  A
C1510      C2407   1.405       .  A
C1511     Br1518   1.930       .  S
C1511      C1512   1.405       .  A
C1512     Br1517   1.932       .  S
C1512      C1513   1.414       .  A
C1514     Br1515   1.934       .  S
C1514      C2409   1.410       .  A
C1519     Br1526   1.934       .  S
C1519      C1520   1.418       .  A
C1519      C1524   1.405       .  A
C1520      C2417   1.409       .  A
C1521     Br1528   1.938       .  S
C1521      C1522   1.397       .  A
C1522     Br1527   1.931       .  S
C1522      C1523   1.411       .  A
C1524     Br1525   1.931       .  S
C1524      C2419   1.402       .  A
C1529     Br1536   1.932       .  S
C1529      C1530   1.408       .  A
C1529      C1534   1.401       .  A
C1530      C1531   1.416       .  A
C1531     Br1538   1.933       .  S
C1531      C1532   1.406       .  A
C1532     Br1537   1.929       .  S
C1532      C1533   1.406       .  A
C1533      C1534   1.410       .  A
C1534     Br1535   1.932       .  S
C1539     Br1546   1.928       .  S
C1539      C1540   1.407       .  A
C1539      C1544   1.406       .  A
C1540      C1541   1.409       .  A
C1541     Br1548   1.931       .  S
C1541      C1542   1.400       .  A
C1542     Br1547   1.932       .  S
C1542      C1543   1.408       .  A
C1543      C1544   1.413       .  A
C1544     Br1545   1.932       .  S
C1549     Br1556   1.927       .  S
C1549      C1550   1.407       .  A
C1551     Br1558   1.928       .  S
C1551      C2670   1.412   1_554  A
C1552     Br1557   1.931       .  S
C1552      C1553   1.409   1_544  A
C1553      C2674   1.411       .  A
C1554     Br1555   1.928       .  S
C1559     Br1566   1.931       .  S
C1559      C1560   1.411       .  A
C1559      C1564   1.410       .  A
C1560      C1785   1.408       .  A
C1561     Br1568   1.929       .  S
C1561      C1784   1.408   1_554  A
C1561      C1562   1.409       .  A
C1562     Br1567   1.932       .  S
C1562      C1563   1.413       .  A
C1563      C1788   1.409   1_554  A
C1564     Br1565   1.929       .  S
C1564      C1787   1.410       .  A
O1569     Ni1575   1.935       .  S
O1569      C1590   1.270       .  A
O1570     Ni1593   1.898       .  S
O1571     Ni1575   1.915       .  S
O1571     Ni1593   1.904       .  S
O1571      H1594   0.966   1_556  S
C1572      O1589   1.261       .  A
C1572      O1581   1.278       .  A
C1572      C1747   1.462       .  S
O1573     Ni1592   1.945       .  S
O1573      C1579   1.276       .  A
O1574     Ni1592   1.896       .  S
O1574      C1576   1.267       .  A
Ni1575     O1578   1.915       .  S
Ni1575     O1580   1.899       .  S
C1576      O1586   1.276       .  A
C1576      C1764   1.468       .  S
O1577     Ni1593   1.902       .  S
O1577      C1583   1.271       .  A
O1578      C1583   1.272       .  A
C1579      C1787   1.480       .  S
O1580      C1582   1.269       .  A
O1581     Ni1592   1.947       .  S
C1582      O1588   1.267       .  A
C1582      C1737   1.467       .  S
C1583      C1754   1.468       .  S
H1584      O1585   0.966       .  S
O1585     Ni1587   1.901       .  S
O1585     Ni1592   1.914       .  S
O1586     Ni1587   1.940       .  S
Ni1587     O1591   1.900       .  S
Ni1587     O1589   1.875       .  S
O1588     Ni1593   1.907       .  S
C1590      C1774   1.476       .  S
O1595     Ni1601   1.938       .  S
O1595      C1616   1.273       .  A
O1596     Ni1619   1.899       .  S
O1597     Ni1601   1.930       .  S
O1597     Ni1619   1.912       .  S
O1597      H1620   0.966       .  S
C1598      O1615   1.273       .  A
C1598      O1607   1.275       .  A
C1598      C1724   1.483       .  S
O1599     Ni1618   1.940       .  S
O1599      C1605   1.273       .  A
O1600     Ni1618   1.913       .  S
O1600      C1602   1.271       .  A
Ni1601     O1604   1.948       .  S
Ni1601     O1606   1.897       .  S
C1602      O1612   1.269       .  A
C1602      C1704   1.481       .  S
O1603     Ni1619   1.888       .  S
O1603      C1609   1.259       .  A
O1604      C1609   1.274       .  A
C1605      C1777   1.477       .  S
O1606      C1608   1.269       .  A
O1607     Ni1618   1.936       .  S
C1608      O1614   1.282       .  A
C1608      C1717   1.479       .  S
C1609      C1694   1.478       .  S
H1610      O1611   0.961       .  S
O1611     Ni1613   1.904       .  S
O1611     Ni1618   1.922       .  S
O1612     Ni1613   1.932       .  S
Ni1613     O1617   1.897       .  S
Ni1613     O1615   1.910       .  S
O1614     Ni1619   1.956       .  S
C1616      C1784   1.476       .  S
O1621     Ni1627   1.942       .  S
O1621      C1642   1.274       .  A
O1622     Ni1645   1.903       .  S
O1622      C1631   1.264       .  A
O1623     Ni1627   1.917       .  S
O1623     Ni1645   1.902       .  S
O1623     Ni1639   1.897       .  S
O1623      H1646   0.966       .  S
C1624      O1641   1.269       .  A
C1624      O1633   1.275       .  A
C1624      C1767   1.471       .  S
O1625     Ni1644   1.947       .  S
O1625      C1631   1.274       .  A
O1626     Ni1644   1.900       .  S
O1626      C1628   1.269       .  A
Ni1627     O1630   1.932       .  S
Ni1627     O1632   1.897       .  S
C1628      O1638   1.266       .  A
C1628      C1744   1.469       .  S
O1629     Ni1645   1.878       .  S
O1629      C1635   1.264       .  A
O1630      C1635   1.275       .  A
C1631      C1674   1.485       .  S
O1632      C1634   1.268       .  A
O1633     Ni1644   1.927       .  S
C1634      O1640   1.274       .  A
C1634      C1757   1.467       .  S
C1635      C1734   1.459       .  S
H1636      O1637   0.965       .  S
O1637     Ni1645   1.901       .  S
O1637     Ni1639   1.910       .  S
O1637     Ni1644   1.924       .  S
O1638     Ni1639   1.907       .  S
Ni1639     O1643   1.896       .  S
Ni1639     O1641   1.892       .  S
O1640     Ni1645   1.933       .  S
C1642      O1643   1.263       .  A
C1642      C1687   1.475       .  S
O1647     Ni1653   1.945       .  S
O1647      C1668   1.276       .  A
O1648     Ni1671   1.898       .  S
O1648      C1657   1.267       .  A
O1649     Ni1653   1.921       .  S
O1649     Ni1671   1.917       .  S
O1649     Ni1665   1.933       .  S
O1649      H1672   0.965       .  S
C1650      O1667   1.279       .  A
C1650      O1659   1.277       .  A
C1650      C1707   1.479       .  S
O1651     Ni1670   1.945       .  S
O1651      C1657   1.276       .  A
O1652     Ni1670   1.911       .  S
O1652      C1654   1.271       .  A
Ni1653     O1656   1.938       .  S
Ni1653     O1658   1.904       .  S
C1654      O1664   1.269       .  A
C1654      C1727   1.479       .  S
O1655     Ni1671   1.901       .  S
O1655      C1661   1.266       .  A
O1656      C1661   1.274       .  A
C1657      C1684   1.484       .  S
O1658      C1660   1.273       .  A
O1659     Ni1670   1.936       .  S
C1660      O1666   1.277       .  A
C1660      C1697   1.487       .  S
C1661      C1714   1.488       .  S
H1662      O1663   0.967       .  S
O1663     Ni1671   1.893       .  S
O1663     Ni1665   1.899       .  S
O1663     Ni1670   1.909       .  S
O1664     Ni1665   1.932       .  S
Ni1665     O1669   1.908       .  S
Ni1665     O1667   1.914       .  S
O1666     Ni1671   1.936       .  S
C1668      O1669   1.268       .  A
C1668      C1677   1.487       .  S
C1673     Br1680   1.928       .  S
C1674      C2569   1.412       .  A
C1674      C1675   1.408       .  A
C1675     Br1682   1.927       .  S
C1676     Br1681   1.929       .  S
C1676      C2573   1.413       .  A
C1677      C1678   1.411   1_565  A
C1678     Br1679   1.930       .  S
C1683     Br1690   1.930       .  S
C1683      C1684   1.412       .  A
C1683      C1688   1.408       .  A
C1684      C1685   1.416       .  A
C1685     Br1692   1.930       .  S
C1685      C1686   1.409       .  A
C1686     Br1691   1.931       .  S
C1686      C1687   1.407       .  A
C1687      C1688   1.409       .  A
C1688     Br1689   1.932       .  S
C1693     Br1700   1.931       .  S
C1693      C1694   1.411       .  A
C1693      C1698   1.401       .  A
C1694      C2591   1.407       .  A
C1695     Br1702   1.929       .  S
C1695      C1696   1.414       .  A
C1696     Br1701   1.929       .  S
C1696      C1697   1.418       .  A
C1698     Br1699   1.937       .  S
C1698      C2593   1.413       .  A
C1703     Br1710   1.929       .  S
C1703      C1704   1.413       .  A
C1703      C1708   1.408       .  A
C1704      C2601   1.410       .  A
C1705     Br1712   1.930       .  S
C1705      C1706   1.407       .  A
C1706     Br1711   1.930       .  S
C1706      C1707   1.411       .  A
C1708     Br1709   1.929       .  S
C1708      C2603   1.408       .  A
C1713     Br1720   1.925       .  S
C1713      C1714   1.415       .  A
C1713      C1718   1.414       .  A
C1714      C1715   1.410       .  A
C1715     Br1722   1.929       .  S
C1715      C1716   1.405       .  A
C1716     Br1721   1.931       .  S
C1716      C1717   1.411       .  A
C1717      C1718   1.408       .  A
C1718     Br1719   1.929       .  S
C1723     Br1730   1.929       .  S
C1723      C1724   1.412       .  A
C1723      C1728   1.409       .  A
C1724      C1725   1.414       .  A
C1725     Br1732   1.927       .  S
C1725      C1726   1.406       .  A
C1726     Br1731   1.927       .  S
C1726      C1727   1.405       .  A
C1727      C1728   1.409       .  A
C1728     Br1729   1.928       .  S
C1733     Br1740   1.936       .  S
C1733      C1734   1.410       .  A
C1733      C1738   1.396       .  A
C1734      C2631   1.405       .  A
C1735     Br1742   1.930       .  S
C1735      C1736   1.405       .  A
C1736     Br1741   1.931       .  S
C1736      C1737   1.415       .  A
C1738     Br1739   1.935       .  S
C1738      C2633   1.410       .  A
C1743     Br1750   1.934       .  S
C1743      C1744   1.417       .  A
C1743      C1748   1.407       .  A
C1744      C2641   1.408       .  A
C1745     Br1752   1.937       .  S
C1745      C1746   1.397       .  A
C1746     Br1751   1.931       .  S
C1746      C1747   1.411       .  A
C1748     Br1749   1.930       .  S
C1748      C2643   1.404       .  A
C1753     Br1760   1.933       .  S
C1753      C1754   1.407       .  A
C1753      C1758   1.402       .  A
C1754      C1755   1.415       .  A
C1755     Br1762   1.934       .  S
C1755      C1756   1.405       .  A
C1756     Br1761   1.929       .  S
C1756      C1757   1.406       .  A
C1757      C1758   1.412       .  A
C1758     Br1759   1.931       .  S
C1763     Br1770   1.928       .  S
C1763      C1764   1.408       .  A
C1763      C1768   1.408       .  A
C1764      C1765   1.409       .  A
C1765     Br1772   1.931       .  S
C1765      C1766   1.401       .  A
C1766     Br1771   1.931       .  S
C1766      C1767   1.408       .  A
C1767      C1768   1.414       .  A
C1768     Br1769   1.933       .  S
C1773     Br1780   1.928       .  S
C1773      C1774   1.407       .  A
C1775     Br1782   1.928       .  S
C1775      C2446   1.412       .  A
C1776     Br1781   1.930       .  S
C1776      C1777   1.409   1_545  A
C1777      C2450   1.410       .  A
C1778     Br1779   1.928       .  S
C1783     Br1790   1.931       .  S
C1783      C1784   1.410       .  A
C1783      C1788   1.409       .  A
C1785     Br1792   1.930       .  S
C1785      C1786   1.409       .  A
C1786     Br1791   1.932       .  S
C1786      C1787   1.413       .  A
C1788     Br1789   1.928       .  S
O1793     Ni1799   1.938       .  S
O1793      C1814   1.270       .  A
O1794     Ni1817   1.901       .  S
O1794      C2027   1.267       .  A
O1795     Ni1799   1.915       .  S
O1795     Ni1817   1.905       .  S
O1795     Ni2035   1.896       .  S
O1795      H1818   0.967       .  S
C1796      O1813   1.260       .  A
C1796      O1805   1.278       .  A
C1796      C1971   1.460       .  S
O1797     Ni1816   1.945       .  S
O1797      C1803   1.276       .  A
O1798     Ni1816   1.895       .  S
O1798      C1800   1.267       .  A
Ni1799     O1802   1.917       .  S
Ni1799     O1804   1.900       .  S
C1800      O1810   1.275       .  A
C1800      C1988   1.465       .  S
O1801     Ni1817   1.900       .  S
O1801      C1807   1.271       .  A
O1802      C1807   1.273       .  A
C1803      O2018   1.266   1_554  A
C1803      C2011   1.479       .  S
O1804      C1806   1.269       .  A
O1805     Ni1816   1.946       .  S
C1806      O1812   1.268       .  A
C1806      C1961   1.468       .  S
C1807      C1978   1.471       .  S
H1808      O1809   0.966       .  S
O1809     Ni2041   1.903   1_554  S
O1809     Ni1811   1.900       .  S
O1809     Ni1816   1.913       .  S
O1810     Ni1811   1.937       .  S
Ni1811     O1815   1.898       .  S
Ni1811     O1813   1.873       .  S
Ni1811     O2019   1.895   1_554  S
O1812     Ni1817   1.909       .  S
C1814      O2039   1.263       .  A
C1814      C1998   1.478       .  S
O1815      C2038   1.263   1_554  A
Ni1817     O2033   1.903       .  S
O1819     Ni1825   1.940       .  S
O1819      C1840   1.273       .  A
O1820     Ni1843   1.900       .  S
O1820      C2053   1.265       .  A
O1821     Ni1825   1.931       .  S
O1821     Ni1843   1.915       .  S
O1821     Ni2061   1.930       .  S
O1821      H1844   0.966       .  S
C1822      O1839   1.272       .  A
C1822      O1831   1.274       .  A
C1822      C1948   1.482       .  S
O1823     Ni1842   1.939       .  S
O1823      C1829   1.272       .  A
O1824     Ni1842   1.912       .  S
O1824      C1826   1.271       .  A
Ni1825     O1828   1.947       .  S
Ni1825     O1830   1.897       .  S
C1826      O1836   1.271       .  A
C1826      C1928   1.483       .  S
O1827     Ni1843   1.890       .  S
O1827      C1833   1.261       .  A
O1828      C1833   1.274       .  A
C1829      O2044   1.264   1_554  A
C1829      C2001   1.477   1_554  S
O1830      C1832   1.269       .  A
O1831     Ni1842   1.935       .  S
C1832      O1838   1.281       .  A
C1832      C1941   1.481       .  S
C1833      C1918   1.478       .  S
H1834      O1835   0.962       .  S
O1835     Ni2067   1.899   1_554  S
O1835     Ni1837   1.905       .  S
O1835     Ni1842   1.923       .  S
O1836     Ni1837   1.935       .  S
Ni1837     O1841   1.898       .  S
Ni1837     O1839   1.910       .  S
Ni1837     O2045   1.929   1_554  S
O1838     Ni1843   1.953       .  S
C1840      O2065   1.264       .  A
C1840      C2008   1.476       .  S
O1841      C2064   1.264   1_554  A
Ni1843     O2059   1.898       .  S
O1845     Ni1851   1.940       .  S
O1845      C1866   1.273       .  A
O1846     Ni1869   1.904       .  S
O1846      C1855   1.265       .  A
O1847     Ni1851   1.917       .  S
O1847     Ni1869   1.903       .  S
O1847     Ni1863   1.896       .  S
O1847      H1870   0.966       .  S
C1848      O1865   1.268       .  A
C1848      O1857   1.274       .  A
C1848      C1991   1.469       .  S
O1849     Ni1868   1.945       .  S
O1849      C1855   1.273       .  A
O1850     Ni1868   1.899       .  S
O1850      C1852   1.269       .  A
Ni1851     O1854   1.933       .  S
Ni1851     O1856   1.897       .  S
C1852      O1862   1.266       .  A
C1852      C1968   1.469       .  S
O1853     Ni1869   1.879       .  S
O1853      C1859   1.264       .  A
O1854      C1859   1.275       .  A
C1855      C1898   1.485       .  S
O1856      C1858   1.267       .  A
O1857     Ni1868   1.926       .  S
C1858      O1864   1.274       .  A
C1858      C1981   1.467       .  S
C1859      C1958   1.459       .  S
H1860      O1861   0.965       .  S
O1861     Ni1869   1.901       .  S
O1861     Ni1863   1.910       .  S
O1861     Ni1868   1.925       .  S
O1862     Ni1863   1.906       .  S
Ni1863     O1867   1.895       .  S
Ni1863     O1865   1.890       .  S
O1864     Ni1869   1.932       .  S
C1866      O1867   1.263       .  A
C1866      C1911   1.475       .  S
O1871     Ni1877   1.946       .  S
O1871      C1892   1.276       .  A
O1872     Ni1895   1.895       .  S
O1872      C1881   1.267       .  A
O1873     Ni1877   1.920       .  S
O1873     Ni1895   1.915       .  S
O1873     Ni1889   1.933       .  S
O1873      H1896   0.965       .  S
C1874      O1891   1.279       .  A
C1874      O1883   1.277       .  A
C1874      C1931   1.480       .  S
O1875     Ni1894   1.945       .  S
O1875      C1881   1.276       .  A
O1876     Ni1894   1.911       .  S
O1876      C1878   1.271       .  A
Ni1877     O1880   1.941       .  S
Ni1877     O1882   1.905       .  S
C1878      O1888   1.270       .  A
C1878      C1951   1.479       .  S
O1879     Ni1895   1.902       .  S
O1879      C1885   1.267       .  A
O1880      C1885   1.275       .  A
C1881      C1908   1.483       .  S
O1882      C1884   1.273       .  A
O1883     Ni1894   1.935       .  S
C1884      O1890   1.276       .  A
C1884      C1921   1.482       .  S
C1885      C1938   1.493       .  S
H1886      O1887   0.967       .  S
O1887     Ni1895   1.894       .  S
O1887     Ni1889   1.898       .  S
O1887     Ni1894   1.908       .  S
O1888     Ni1889   1.932       .  S
Ni1889     O1893   1.906       .  S
Ni1889     O1891   1.917       .  S
O1890     Ni1895   1.931       .  S
C1892      O1893   1.268       .  A
C1892      C1901   1.486       .  S
C1897     Br1904   1.928       .  S
C1897      C2350   1.411       .  A
C1898      C1899   1.409   1_545  A
C1899     Br1906   1.927       .  S
C1899      C2348   1.413       .  A
C1900     Br1905   1.929       .  S
C1900      C2347   1.413       .  A
C1901      C1902   1.410       .  A
C1902     Br1903   1.930       .  S
C1902      C2345   1.411       .  A
C1907     Br1914   1.931       .  S
C1907      C1908   1.413       .  A
C1907      C1912   1.408       .  A
C1908      C1909   1.416       .  A
C1909     Br1916   1.931       .  S
C1909      C1910   1.409       .  A
C1910     Br1915   1.931       .  S
C1910      C1911   1.407       .  A
C1911      C1912   1.409       .  A
C1912     Br1913   1.933       .  S
C1917     Br1924   1.931       .  S
C1917      C1918   1.412       .  A
C1917      C1922   1.400   1_655  A
C1919     Br1926   1.928       .  S
C1919      C1920   1.414       .  A
C1920     Br1925   1.930       .  S
C1920      C1921   1.416       .  A
C1922     Br1923   1.935   1_455  S
C1927     Br1934   1.929       .  S
C1927      C1928   1.414       .  A
C1927      C1932   1.409       .  A
C1929     Br1936   1.930       .  S
C1929      C1930   1.407       .  A
C1930     Br1935   1.930       .  S
C1930      C1931   1.410       .  A
C1932     Br1933   1.928       .  S
C1937     Br1944   1.925       .  S
C1937      C1938   1.417       .  A
C1937      C1942   1.415       .  A
C1938      C1939   1.413       .  A
C1939     Br1946   1.930       .  S
C1939      C1940   1.405       .  A
C1940     Br1945   1.934       .  S
C1940      C1941   1.411       .  A
C1941      C1942   1.408       .  A
C1942     Br1943   1.929       .  S
C1947     Br1954   1.929       .  S
C1947      C1948   1.412       .  A
C1947      C1952   1.410       .  A
C1948      C1949   1.413       .  A
C1949     Br1956   1.927       .  S
C1949      C1950   1.406       .  A
C1950     Br1955   1.928       .  S
C1950      C1951   1.405       .  A
C1951      C1952   1.410       .  A
C1952     Br1953   1.928       .  S
C1957     Br1964   1.935       .  S
C1957      C1958   1.409       .  A
C1957      C1962   1.396   1_655  A
C1959     Br1966   1.930       .  S
C1959      C1960   1.405       .  A
C1960     Br1965   1.932       .  S
C1960      C1961   1.414       .  A
C1962     Br1963   1.934   1_455  S
C1967     Br1974   1.934       .  S
C1967      C1968   1.418       .  A
C1967      C1972   1.405       .  A
C1969     Br1976   1.938       .  S
C1969      C1970   1.397       .  A
C1970     Br1975   1.931       .  S
C1970      C1971   1.411       .  A
C1972     Br1973   1.931       .  S
C1977     Br1984   1.932       .  S
C1977      C1978   1.408       .  A
C1977      C1982   1.401       .  A
C1978      C1979   1.416       .  A
C1979     Br1986   1.933       .  S
C1979      C1980   1.406       .  A
C1980     Br1985   1.929       .  S
C1980      C1981   1.406       .  A
C1981      C1982   1.410       .  A
C1982     Br1983   1.932       .  S
C1987     Br1994   1.928       .  S
C1987      C1988   1.407       .  A
C1987      C1992   1.406       .  A
C1988      C1989   1.409       .  A
C1989     Br1996   1.931       .  S
C1989      C1990   1.400       .  A
C1990     Br1995   1.932       .  S
C1990      C1991   1.408       .  A
C1991      C1992   1.413       .  A
C1992     Br1993   1.932       .  S
C1997     Br2004   1.927       .  S
C1997      C1998   1.407   1_565  A
C1997      C2450   1.408       .  A
C1999     Br2006   1.928       .  S
C1999      C2448   1.409       .  A
C2000     Br2005   1.931       .  S
C2000      C2447   1.409       .  A
C2000      C2001   1.409   1_554  A
C2002     Br2003   1.928       .  S
C2002      C2445   1.408       .  A
C2007     Br2014   1.931       .  S
C2007      C2008   1.411       .  A
C2007      C2012   1.410       .  A
C2008      C2233   1.408       .  A
C2009     Br2016   1.929       .  S
C2009      C2232   1.408   1_554  A
C2009      C2010   1.409       .  A
C2010     Br2015   1.932       .  S
C2010      C2011   1.413       .  A
C2011      C2236   1.409   1_554  A
C2012     Br2013   1.929       .  S
C2012      C2235   1.410       .  A
O2017     Ni2023   1.935       .  S
O2017      C2038   1.270       .  A
O2018     Ni2041   1.898       .  S
O2019     Ni2023   1.915       .  S
O2019     Ni2041   1.904       .  S
O2019      H2042   0.966   1_556  S
C2020      O2037   1.261       .  A
C2020      O2029   1.278       .  A
C2020      C2195   1.462       .  S
O2021     Ni2040   1.945       .  S
O2021      C2027   1.276       .  A
O2022     Ni2040   1.896       .  S
O2022      C2024   1.267       .  A
Ni2023     O2026   1.915       .  S
Ni2023     O2028   1.899       .  S
C2024      O2034   1.276       .  A
C2024      C2212   1.468       .  S
O2025     Ni2041   1.902       .  S
O2025      C2031   1.271       .  A
O2026      C2031   1.272       .  A
C2027      C2235   1.480       .  S
O2028      C2030   1.269       .  A
O2029     Ni2040   1.947       .  S
C2030      O2036   1.267       .  A
C2030      C2185   1.467       .  S
C2031      C2202   1.468       .  S
H2032      O2033   0.966       .  S
O2033     Ni2035   1.901       .  S
O2033     Ni2040   1.914       .  S
O2034     Ni2035   1.940       .  S
Ni2035     O2039   1.900       .  S
Ni2035     O2037   1.875       .  S
O2036     Ni2041   1.907       .  S
C2038      C2222   1.476       .  S
O2043     Ni2049   1.938       .  S
O2043      C2064   1.273       .  A
O2044     Ni2067   1.899       .  S
O2045     Ni2049   1.930       .  S
O2045     Ni2067   1.912       .  S
O2045      H2068   0.966       .  S
C2046      O2063   1.273       .  A
C2046      O2055   1.275       .  A
C2046      C2172   1.483       .  S
O2047     Ni2066   1.940       .  S
O2047      C2053   1.273       .  A
O2048     Ni2066   1.913       .  S
O2048      C2050   1.271       .  A
Ni2049     O2052   1.948       .  S
Ni2049     O2054   1.897       .  S
C2050      O2060   1.269       .  A
C2050      C2152   1.481       .  S
O2051     Ni2067   1.888       .  S
O2051      C2057   1.259       .  A
O2052      C2057   1.274       .  A
C2053      C2225   1.477       .  S
O2054      C2056   1.269       .  A
O2055     Ni2066   1.936       .  S
C2056      O2062   1.282       .  A
C2056      C2165   1.479       .  S
C2057      C2142   1.478       .  S
H2058      O2059   0.961       .  S
O2059     Ni2061   1.904       .  S
O2059     Ni2066   1.922       .  S
O2060     Ni2061   1.932       .  S
Ni2061     O2065   1.897       .  S
Ni2061     O2063   1.910       .  S
O2062     Ni2067   1.956       .  S
C2064      C2232   1.476       .  S
O2069     Ni2075   1.942       .  S
O2069      C2090   1.274       .  A
O2070     Ni2093   1.903       .  S
O2070      C2079   1.264       .  A
O2071     Ni2075   1.917       .  S
O2071     Ni2093   1.902       .  S
O2071     Ni2087   1.897       .  S
O2071      H2094   0.966       .  S
C2072      O2089   1.269       .  A
C2072      O2081   1.275       .  A
C2072      C2215   1.471       .  S
O2073     Ni2092   1.947       .  S
O2073      C2079   1.274       .  A
O2074     Ni2092   1.900       .  S
O2074      C2076   1.269       .  A
Ni2075     O2078   1.932       .  S
Ni2075     O2080   1.897       .  S
C2076      O2086   1.266       .  A
C2076      C2192   1.469       .  S
O2077     Ni2093   1.878       .  S
O2077      C2083   1.264       .  A
O2078      C2083   1.275       .  A
C2079      C2122   1.485       .  S
O2080      C2082   1.268       .  A
O2081     Ni2092   1.927       .  S
C2082      O2088   1.274       .  A
C2082      C2205   1.467       .  S
C2083      C2182   1.459       .  S
H2084      O2085   0.965       .  S
O2085     Ni2093   1.901       .  S
O2085     Ni2087   1.910       .  S
O2085     Ni2092   1.924       .  S
O2086     Ni2087   1.907       .  S
Ni2087     O2091   1.896       .  S
Ni2087     O2089   1.892       .  S
O2088     Ni2093   1.933       .  S
C2090      O2091   1.263       .  A
C2090      C2135   1.475       .  S
O2095     Ni2101   1.945       .  S
O2095      C2116   1.276       .  A
O2096     Ni2119   1.898       .  S
O2096      C2105   1.267       .  A
O2097     Ni2101   1.921       .  S
O2097     Ni2119   1.917       .  S
O2097     Ni2113   1.933       .  S
O2097      H2120   0.965       .  S
C2098      O2115   1.279       .  A
C2098      O2107   1.277       .  A
C2098      C2155   1.479       .  S
O2099     Ni2118   1.945       .  S
O2099      C2105   1.276       .  A
O2100     Ni2118   1.911       .  S
O2100      C2102   1.271       .  A
Ni2101     O2104   1.938       .  S
Ni2101     O2106   1.904       .  S
C2102      O2112   1.269       .  A
C2102      C2175   1.479       .  S
O2103     Ni2119   1.901       .  S
O2103      C2109   1.266       .  A
O2104      C2109   1.274       .  A
C2105      C2132   1.484       .  S
O2106      C2108   1.273       .  A
O2107     Ni2118   1.936       .  S
C2108      O2114   1.277       .  A
C2108      C2145   1.487       .  S
C2109      C2162   1.488       .  S
H2110      O2111   0.967       .  S
O2111     Ni2119   1.893       .  S
O2111     Ni2113   1.899       .  S
O2111     Ni2118   1.909       .  S
O2112     Ni2113   1.932       .  S
Ni2113     O2117   1.908       .  S
Ni2113     O2115   1.914       .  S
O2114     Ni2119   1.936       .  S
C2116      O2117   1.268       .  A
C2116      C2125   1.487       .  S
C2121     Br2128   1.928       .  S
C2121      C2574   1.411       .  A
C2122      C2123   1.408   1_545  A
C2123     Br2130   1.927       .  S
C2123      C2572   1.413       .  A
C2124     Br2129   1.929       .  S
C2124      C2571   1.413       .  A
C2125      C2126   1.411       .  A
C2126     Br2127   1.930       .  S
C2126      C2569   1.411       .  A
C2131     Br2138   1.930       .  S
C2131      C2132   1.412       .  A
C2131      C2136   1.408       .  A
C2132      C2133   1.416       .  A
C2133     Br2140   1.930       .  S
C2133      C2134   1.409       .  A
C2134     Br2139   1.931       .  S
C2134      C2135   1.407       .  A
C2135      C2136   1.409       .  A
C2136     Br2137   1.932       .  S
C2141     Br2148   1.931       .  S
C2141      C2142   1.411       .  A
C2141      C2146   1.401   1_655  A
C2143     Br2150   1.929       .  S
C2143      C2144   1.414       .  A
C2144     Br2149   1.929       .  S
C2144      C2145   1.418       .  A
C2146     Br2147   1.937   1_455  S
C2151     Br2158   1.929       .  S
C2151      C2152   1.413       .  A
C2151      C2156   1.408       .  A
C2153     Br2160   1.930       .  S
C2153      C2154   1.407       .  A
C2154     Br2159   1.930       .  S
C2154      C2155   1.411       .  A
C2156     Br2157   1.929       .  S
C2161     Br2168   1.925       .  S
C2161      C2162   1.415       .  A
C2161      C2166   1.414       .  A
C2162      C2163   1.410       .  A
C2163     Br2170   1.929       .  S
C2163      C2164   1.405       .  A
C2164     Br2169   1.931       .  S
C2164      C2165   1.411       .  A
C2165      C2166   1.408       .  A
C2166     Br2167   1.929       .  S
C2171     Br2178   1.929       .  S
C2171      C2172   1.412       .  A
C2171      C2176   1.409       .  A
C2172      C2173   1.414       .  A
C2173     Br2180   1.927       .  S
C2173      C2174   1.406       .  A
C2174     Br2179   1.927       .  S
C2174      C2175   1.405       .  A
C2175      C2176   1.409       .  A
C2176     Br2177   1.928       .  S
C2181     Br2188   1.936       .  S
C2181      C2182   1.410       .  A
C2181      C2186   1.396   1_655  A
C2183     Br2190   1.930       .  S
C2183      C2184   1.405       .  A
C2184     Br2189   1.931       .  S
C2184      C2185   1.415       .  A
C2186     Br2187   1.935   1_455  S
C2191     Br2198   1.934       .  S
C2191      C2192   1.417       .  A
C2191      C2196   1.407       .  A
C2193     Br2200   1.937       .  S
C2193      C2194   1.397       .  A
C2194     Br2199   1.931       .  S
C2194      C2195   1.411       .  A
C2196     Br2197   1.930       .  S
C2201     Br2208   1.933       .  S
C2201      C2202   1.407       .  A
C2201      C2206   1.402       .  A
C2202      C2203   1.415       .  A
C2203     Br2210   1.934       .  S
C2203      C2204   1.405       .  A
C2204     Br2209   1.929       .  S
C2204      C2205   1.406       .  A
C2205      C2206   1.412       .  A
C2206     Br2207   1.931       .  S
C2211     Br2218   1.928       .  S
C2211      C2212   1.408       .  A
C2211      C2216   1.408       .  A
C2212      C2213   1.409       .  A
C2213     Br2220   1.931       .  S
C2213      C2214   1.401       .  A
C2214     Br2219   1.931       .  S
C2214      C2215   1.408       .  A
C2215      C2216   1.414       .  A
C2216     Br2217   1.933       .  S
C2221     Br2228   1.928       .  S
C2221      C2222   1.407   1_565  A
C2221      C2674   1.408       .  A
C2223     Br2230   1.928       .  S
C2223      C2672   1.410       .  A
C2224     Br2229   1.930       .  S
C2224      C2671   1.410       .  A
C2224      C2225   1.409       .  A
C2226     Br2227   1.928       .  S
C2226      C2669   1.408       .  A
C2231     Br2238   1.931       .  S
C2231      C2232   1.410       .  A
C2231      C2236   1.409       .  A
C2233     Br2240   1.930       .  S
C2233      C2234   1.409       .  A
C2234     Br2239   1.932       .  S
C2234      C2235   1.413       .  A
C2236     Br2237   1.928       .  S
O2241     Ni2247   1.938       .  S
O2241      C2262   1.270       .  A
O2242     Ni2265   1.901       .  S
O2242      C2475   1.267       .  A
O2243     Ni2247   1.915       .  S
O2243     Ni2265   1.905       .  S
O2243     Ni2483   1.896       .  S
O2243      H2266   0.967       .  S
C2244      O2261   1.260       .  A
C2244      O2253   1.278       .  A
C2244      C2419   1.460       .  S
O2245     Ni2264   1.945       .  S
O2245      C2251   1.276       .  A
O2246     Ni2264   1.895       .  S
O2246      C2248   1.267       .  A
Ni2247     O2250   1.917       .  S
Ni2247     O2252   1.900       .  S
C2248      O2258   1.275       .  A
C2248      C2436   1.465       .  S
O2249     Ni2265   1.900       .  S
O2249      C2255   1.271       .  A
O2250      C2255   1.273       .  A
C2251      O2466   1.266   1_554  A
C2251      C2459   1.479       .  S
O2252      C2254   1.269       .  A
O2253     Ni2264   1.946       .  S
C2254      O2260   1.268       .  A
C2254      C2409   1.468       .  S
C2255      C2426   1.471       .  S
H2256      O2257   0.966       .  S
O2257     Ni2489   1.903   1_554  S
O2257     Ni2259   1.900       .  S
O2257     Ni2264   1.913       .  S
O2258     Ni2259   1.937       .  S
Ni2259     O2263   1.898       .  S
Ni2259     O2261   1.873       .  S
Ni2259     O2467   1.895   1_554  S
O2260     Ni2265   1.909       .  S
C2262      O2487   1.263       .  A
C2262      C2446   1.478       .  S
O2263      C2486   1.263   1_554  A
Ni2265     O2481   1.903       .  S
O2267     Ni2273   1.940       .  S
O2267      C2288   1.273       .  A
O2268     Ni2291   1.900       .  S
O2268      C2501   1.265       .  A
O2269     Ni2273   1.931       .  S
O2269     Ni2291   1.915       .  S
O2269     Ni2509   1.930       .  S
O2269      H2292   0.966       .  S
C2270      O2287   1.272       .  A
C2270      O2279   1.274       .  A
C2270      C2396   1.482       .  S
O2271     Ni2290   1.939       .  S
O2271      C2277   1.272       .  A
O2272     Ni2290   1.912       .  S
O2272      C2274   1.271       .  A
Ni2273     O2276   1.947       .  S
Ni2273     O2278   1.897       .  S
C2274      O2284   1.271       .  A
C2274      C2376   1.483       .  S
O2275     Ni2291   1.890       .  S
O2275      C2281   1.261       .  A
O2276      C2281   1.274       .  A
C2277      O2492   1.264   1_554  A
C2277      C2449   1.477   1_554  S
O2278      C2280   1.269       .  A
O2279     Ni2290   1.935       .  S
C2280      O2286   1.281       .  A
C2280      C2389   1.481       .  S
C2281      C2366   1.478       .  S
H2282      O2283   0.962       .  S
O2283     Ni2515   1.899   1_554  S
O2283     Ni2285   1.905       .  S
O2283     Ni2290   1.923       .  S
O2284     Ni2285   1.935       .  S
Ni2285     O2289   1.898       .  S
Ni2285     O2287   1.910       .  S
Ni2285     O2493   1.929   1_554  S
O2286     Ni2291   1.953       .  S
C2288      O2513   1.264       .  A
C2288      C2456   1.476       .  S
O2289      C2512   1.264   1_554  A
Ni2291     O2507   1.898       .  S
O2293     Ni2299   1.940       .  S
O2293      C2314   1.273       .  A
O2294     Ni2317   1.904       .  S
O2294      C2303   1.265       .  A
O2295     Ni2299   1.917       .  S
O2295     Ni2317   1.903       .  S
O2295     Ni2311   1.896       .  S
O2295      H2318   0.966       .  S
C2296      O2313   1.268       .  A
C2296      O2305   1.274       .  A
C2296      C2439   1.469       .  S
O2297     Ni2316   1.945       .  S
O2297      C2303   1.273       .  A
O2298     Ni2316   1.899       .  S
O2298      C2300   1.269       .  A
Ni2299     O2302   1.933       .  S
Ni2299     O2304   1.897       .  S
C2300      O2310   1.266       .  A
C2300      C2416   1.469       .  S
O2301     Ni2317   1.879       .  S
O2301      C2307   1.264       .  A
O2302      C2307   1.275       .  A
C2303      C2346   1.485       .  S
O2304      C2306   1.267       .  A
O2305     Ni2316   1.926       .  S
C2306      O2312   1.274       .  A
C2306      C2429   1.467       .  S
C2307      C2406   1.459       .  S
H2308      O2309   0.965       .  S
O2309     Ni2317   1.901       .  S
O2309     Ni2311   1.910       .  S
O2309     Ni2316   1.925       .  S
O2310     Ni2311   1.906       .  S
Ni2311     O2315   1.895       .  S
Ni2311     O2313   1.890       .  S
O2312     Ni2317   1.932       .  S
C2314      O2315   1.263       .  A
C2314      C2359   1.475       .  S
O2319     Ni2325   1.946       .  S
O2319      C2340   1.276       .  A
O2320     Ni2343   1.895       .  S
O2320      C2329   1.267       .  A
O2321     Ni2325   1.920       .  S
O2321     Ni2343   1.915       .  S
O2321     Ni2337   1.933       .  S
O2321      H2344   0.965       .  S
C2322      O2339   1.279       .  A
C2322      O2331   1.277       .  A
C2322      C2379   1.480       .  S
O2323     Ni2342   1.945       .  S
O2323      C2329   1.276       .  A
O2324     Ni2342   1.911       .  S
O2324      C2326   1.271       .  A
Ni2325     O2328   1.941       .  S
Ni2325     O2330   1.905       .  S
C2326      O2336   1.270       .  A
C2326      C2399   1.479       .  S
O2327     Ni2343   1.902       .  S
O2327      C2333   1.267       .  A
O2328      C2333   1.275       .  A
C2329      C2356   1.483       .  S
O2330      C2332   1.273       .  A
O2331     Ni2342   1.935       .  S
C2332      O2338   1.276       .  A
C2332      C2369   1.482       .  S
C2333      C2386   1.493       .  S
H2334      O2335   0.967       .  S
O2335     Ni2343   1.894       .  S
O2335     Ni2337   1.898       .  S
O2335     Ni2342   1.908       .  S
O2336     Ni2337   1.932       .  S
Ni2337     O2341   1.907       .  S
Ni2337     O2339   1.917       .  S
O2338     Ni2343   1.931       .  S
C2340      O2341   1.268       .  A
C2340      C2349   1.486       .  S
C2345     Br2352   1.928       .  S
C2346      C2347   1.409       .  A
C2347     Br2354   1.927       .  S
C2348     Br2353   1.929       .  S
C2349      C2350   1.410   1_565  A
C2350     Br2351   1.930       .  S
C2355     Br2362   1.931       .  S
C2355      C2356   1.413       .  A
C2355      C2360   1.408       .  A
C2356      C2357   1.416       .  A
C2357     Br2364   1.931       .  S
C2357      C2358   1.409       .  A
C2358     Br2363   1.931       .  S
C2358      C2359   1.407       .  A
C2359      C2360   1.409       .  A
C2360     Br2361   1.933       .  S
C2365     Br2372   1.931       .  S
C2365      C2366   1.412       .  A
C2365      C2370   1.400   1_655  A
C2367     Br2374   1.928       .  S
C2367      C2368   1.414       .  A
C2368     Br2373   1.930       .  S
C2368      C2369   1.416       .  A
C2370     Br2371   1.935   1_455  S
C2375     Br2382   1.929       .  S
C2375      C2376   1.414       .  A
C2375      C2380   1.409       .  A
C2377     Br2384   1.930       .  S
C2377      C2378   1.407       .  A
C2378     Br2383   1.930       .  S
C2378      C2379   1.410       .  A
C2380     Br2381   1.928       .  S
C2385     Br2392   1.925       .  S
C2385      C2386   1.417       .  A
C2385      C2390   1.415       .  A
C2386      C2387   1.413       .  A
C2387     Br2394   1.930       .  S
C2387      C2388   1.405       .  A
C2388     Br2393   1.934       .  S
C2388      C2389   1.411       .  A
C2389      C2390   1.408       .  A
C2390     Br2391   1.929       .  S
C2395     Br2402   1.929       .  S
C2395      C2396   1.412       .  A
C2395      C2400   1.410       .  A
C2396      C2397   1.413       .  A
C2397     Br2404   1.927       .  S
C2397      C2398   1.406       .  A
C2398     Br2403   1.928       .  S
C2398      C2399   1.405       .  A
C2399      C2400   1.410       .  A
C2400     Br2401   1.928       .  S
C2405     Br2412   1.935       .  S
C2405      C2406   1.409       .  A
C2405      C2410   1.396   1_655  A
C2407     Br2414   1.930       .  S
C2407      C2408   1.405       .  A
C2408     Br2413   1.932       .  S
C2408      C2409   1.414       .  A
C2410     Br2411   1.934   1_455  S
C2415     Br2422   1.934       .  S
C2415      C2416   1.418       .  A
C2415      C2420   1.405       .  A
C2417     Br2424   1.938       .  S
C2417      C2418   1.397       .  A
C2418     Br2423   1.931       .  S
C2418      C2419   1.411       .  A
C2420     Br2421   1.931       .  S
C2425     Br2432   1.932       .  S
C2425      C2426   1.408       .  A
C2425      C2430   1.401       .  A
C2426      C2427   1.416       .  A
C2427     Br2434   1.933       .  S
C2427      C2428   1.406       .  A
C2428     Br2433   1.929       .  S
C2428      C2429   1.406       .  A
C2429      C2430   1.410       .  A
C2430     Br2431   1.932       .  S
C2435     Br2442   1.928       .  S
C2435      C2436   1.407       .  A
C2435      C2440   1.406       .  A
C2436      C2437   1.409       .  A
C2437     Br2444   1.931       .  S
C2437      C2438   1.400       .  A
C2438     Br2443   1.932       .  S
C2438      C2439   1.408       .  A
C2439      C2440   1.413       .  A
C2440     Br2441   1.932       .  S
C2445     Br2452   1.927       .  S
C2445      C2446   1.407       .  A
C2447     Br2454   1.928       .  S
C2448     Br2453   1.931       .  S
C2448      C2449   1.409   1_544  A
C2450     Br2451   1.928       .  S
C2455     Br2462   1.931       .  S
C2455      C2456   1.411       .  A
C2455      C2460   1.410       .  A
C2456      C2681   1.408       .  A
C2457     Br2464   1.929       .  S
C2457      C2680   1.408   1_554  A
C2457      C2458   1.409       .  A
C2458     Br2463   1.932       .  S
C2458      C2459   1.413       .  A
C2459      C2684   1.409   1_554  A
C2460     Br2461   1.929       .  S
C2460      C2683   1.410       .  A
O2465     Ni2471   1.935       .  S
O2465      C2486   1.270       .  A
O2466     Ni2489   1.898       .  S
O2467     Ni2471   1.915       .  S
O2467     Ni2489   1.904       .  S
O2467      H2490   0.966   1_556  S
C2468      O2485   1.261       .  A
C2468      O2477   1.278       .  A
C2468      C2643   1.462       .  S
O2469     Ni2488   1.945       .  S
O2469      C2475   1.276       .  A
O2470     Ni2488   1.896       .  S
O2470      C2472   1.267       .  A
Ni2471     O2474   1.915       .  S
Ni2471     O2476   1.899       .  S
C2472      O2482   1.276       .  A
C2472      C2660   1.468       .  S
O2473     Ni2489   1.902       .  S
O2473      C2479   1.271       .  A
O2474      C2479   1.272       .  A
C2475      C2683   1.480       .  S
O2476      C2478   1.269       .  A
O2477     Ni2488   1.947       .  S
C2478      O2484   1.267       .  A
C2478      C2633   1.467       .  S
C2479      C2650   1.468       .  S
H2480      O2481   0.966       .  S
O2481     Ni2483   1.901       .  S
O2481     Ni2488   1.914       .  S
O2482     Ni2483   1.940       .  S
Ni2483     O2487   1.900       .  S
Ni2483     O2485   1.875       .  S
O2484     Ni2489   1.907       .  S
C2486      C2670   1.476       .  S
O2491     Ni2497   1.938       .  S
O2491      C2512   1.273       .  A
O2492     Ni2515   1.899       .  S
O2493     Ni2497   1.930       .  S
O2493     Ni2515   1.912       .  S
O2493      H2516   0.966       .  S
C2494      O2511   1.273       .  A
C2494      O2503   1.275       .  A
C2494      C2620   1.483       .  S
O2495     Ni2514   1.940       .  S
O2495      C2501   1.273       .  A
O2496     Ni2514   1.913       .  S
O2496      C2498   1.271       .  A
Ni2497     O2500   1.948       .  S
Ni2497     O2502   1.897       .  S
C2498      O2508   1.269       .  A
C2498      C2600   1.481       .  S
O2499     Ni2515   1.888       .  S
O2499      C2505   1.259       .  A
O2500      C2505   1.274       .  A
C2501      C2673   1.477       .  S
O2502      C2504   1.269       .  A
O2503     Ni2514   1.936       .  S
C2504      O2510   1.282       .  A
C2504      C2613   1.479       .  S
C2505      C2590   1.478       .  S
H2506      O2507   0.961       .  S
O2507     Ni2509   1.904       .  S
O2507     Ni2514   1.922       .  S
O2508     Ni2509   1.932       .  S
Ni2509     O2513   1.897       .  S
Ni2509     O2511   1.910       .  S
O2510     Ni2515   1.956       .  S
C2512      C2680   1.476       .  S
O2517     Ni2523   1.942       .  S
O2517      C2538   1.274       .  A
O2518     Ni2541   1.903       .  S
O2518      C2527   1.264       .  A
O2519     Ni2523   1.917       .  S
O2519     Ni2541   1.902       .  S
O2519     Ni2535   1.897       .  S
O2519      H2542   0.966       .  S
C2520      O2537   1.269       .  A
C2520      O2529   1.275       .  A
C2520      C2663   1.471       .  S
O2521     Ni2540   1.947       .  S
O2521      C2527   1.274       .  A
O2522     Ni2540   1.900       .  S
O2522      C2524   1.269       .  A
Ni2523     O2526   1.932       .  S
Ni2523     O2528   1.897       .  S
C2524      O2534   1.266       .  A
C2524      C2640   1.469       .  S
O2525     Ni2541   1.878       .  S
O2525      C2531   1.264       .  A
O2526      C2531   1.275       .  A
C2527      C2570   1.485       .  S
O2528      C2530   1.268       .  A
O2529     Ni2540   1.927       .  S
C2530      O2536   1.274       .  A
C2530      C2653   1.467       .  S
C2531      C2630   1.459       .  S
H2532      O2533   0.965       .  S
O2533     Ni2541   1.901       .  S
O2533     Ni2535   1.910       .  S
O2533     Ni2540   1.924       .  S
O2534     Ni2535   1.907       .  S
Ni2535     O2539   1.896       .  S
Ni2535     O2537   1.892       .  S
O2536     Ni2541   1.933       .  S
C2538      O2539   1.263       .  A
C2538      C2583   1.475       .  S
O2543     Ni2549   1.945       .  S
O2543      C2564   1.276       .  A
O2544     Ni2567   1.898       .  S
O2544      C2553   1.267       .  A
O2545     Ni2549   1.921       .  S
O2545     Ni2567   1.917       .  S
O2545     Ni2561   1.933       .  S
O2545      H2568   0.965       .  S
C2546      O2563   1.279       .  A
C2546      O2555   1.277       .  A
C2546      C2603   1.479       .  S
O2547     Ni2566   1.945       .  S
O2547      C2553   1.276       .  A
O2548     Ni2566   1.911       .  S
O2548      C2550   1.271       .  A
Ni2549     O2552   1.938       .  S
Ni2549     O2554   1.904       .  S
C2550      O2560   1.269       .  A
C2550      C2623   1.479       .  S
O2551     Ni2567   1.901       .  S
O2551      C2557   1.266       .  A
O2552      C2557   1.274       .  A
C2553      C2580   1.484       .  S
O2554      C2556   1.273       .  A
O2555     Ni2566   1.936       .  S
C2556      O2562   1.277       .  A
C2556      C2593   1.487       .  S
C2557      C2610   1.488       .  S
H2558      O2559   0.967       .  S
O2559     Ni2567   1.893       .  S
O2559     Ni2561   1.899       .  S
O2559     Ni2566   1.909       .  S
O2560     Ni2561   1.932       .  S
Ni2561     O2565   1.908       .  S
Ni2561     O2563   1.914       .  S
O2562     Ni2567   1.936       .  S
C2564      O2565   1.268       .  A
C2564      C2573   1.487       .  S
C2569     Br2576   1.928       .  S
C2570      C2571   1.408       .  A
C2571     Br2578   1.927       .  S
C2572     Br2577   1.929       .  S
C2573      C2574   1.411   1_565  A
C2574     Br2575   1.930       .  S
C2579     Br2586   1.930       .  S
C2579      C2580   1.412       .  A
C2579      C2584   1.408       .  A
C2580      C2581   1.416       .  A
C2581     Br2588   1.930       .  S
C2581      C2582   1.409       .  A
C2582     Br2587   1.931       .  S
C2582      C2583   1.407       .  A
C2583      C2584   1.409       .  A
C2584     Br2585   1.932       .  S
C2589     Br2596   1.931       .  S
C2589      C2590   1.411       .  A
C2589      C2594   1.401   1_655  A
C2591     Br2598   1.929       .  S
C2591      C2592   1.414       .  A
C2592     Br2597   1.929       .  S
C2592      C2593   1.418       .  A
C2594     Br2595   1.937   1_455  S
C2599     Br2606   1.929       .  S
C2599      C2600   1.413       .  A
C2599      C2604   1.408       .  A
C2601     Br2608   1.930       .  S
C2601      C2602   1.407       .  A
C2602     Br2607   1.930       .  S
C2602      C2603   1.411       .  A
C2604     Br2605   1.929       .  S
C2609     Br2616   1.925       .  S
C2609      C2610   1.415       .  A
C2609      C2614   1.414       .  A
C2610      C2611   1.410       .  A
C2611     Br2618   1.929       .  S
C2611      C2612   1.405       .  A
C2612     Br2617   1.931       .  S
C2612      C2613   1.411       .  A
C2613      C2614   1.408       .  A
C2614     Br2615   1.929       .  S
C2619     Br2626   1.929       .  S
C2619      C2620   1.412       .  A
C2619      C2624   1.409       .  A
C2620      C2621   1.414       .  A
C2621     Br2628   1.927       .  S
C2621      C2622   1.406       .  A
C2622     Br2627   1.927       .  S
C2622      C2623   1.405       .  A
C2623      C2624   1.409       .  A
C2624     Br2625   1.928       .  S
C2629     Br2636   1.936       .  S
C2629      C2630   1.410       .  A
C2629      C2634   1.396   1_655  A
C2631     Br2638   1.930       .  S
C2631      C2632   1.405       .  A
C2632     Br2637   1.931       .  S
C2632      C2633   1.415       .  A
C2634     Br2635   1.935   1_455  S
C2639     Br2646   1.934       .  S
C2639      C2640   1.417       .  A
C2639      C2644   1.407       .  A
C2641     Br2648   1.937       .  S
C2641      C2642   1.397       .  A
C2642     Br2647   1.931       .  S
C2642      C2643   1.411       .  A
C2644     Br2645   1.930       .  S
C2649     Br2656   1.933       .  S
C2649      C2650   1.407       .  A
C2649      C2654   1.402       .  A
C2650      C2651   1.415       .  A
C2651     Br2658   1.934       .  S
C2651      C2652   1.405       .  A
C2652     Br2657   1.929       .  S
C2652      C2653   1.406       .  A
C2653      C2654   1.412       .  A
C2654     Br2655   1.931       .  S
C2659     Br2666   1.928       .  S
C2659      C2660   1.408       .  A
C2659      C2664   1.408       .  A
C2660      C2661   1.409       .  A
C2661     Br2668   1.931       .  S
C2661      C2662   1.401       .  A
C2662     Br2667   1.931       .  S
C2662      C2663   1.408       .  A
C2663      C2664   1.414       .  A
C2664     Br2665   1.933       .  S
C2669     Br2676   1.928       .  S
C2669      C2670   1.407       .  A
C2671     Br2678   1.928       .  S
C2672     Br2677   1.930       .  S
C2672      C2673   1.409   1_545  A
C2674     Br2675   1.928       .  S
C2679     Br2686   1.931       .  S
C2679      C2680   1.410       .  A
C2679      C2684   1.409       .  A
C2681     Br2688   1.930       .  S
C2681      C2682   1.409       .  A
C2682     Br2687   1.932       .  S
C2682      C2683   1.413       .  A
C2684     Br2685   1.928       .  S
