geometry optimzed in LAMMPS
_audit_creation_date              2020-12-01 
_audit_creation_method            'lammps2cif' 
_symmetry_space_group_name_H-M    'P1' 
_symmetry_Int_Tables_number       1 
_symmetry_cell_setting            triclinic 
loop_ 
_symmetry_equiv_pos_as_xyz 
  x,y,z 
_cell_length_a                    51.86267697 
_cell_length_b                    51.46411556950257 
_cell_length_c                    51.53214040843089 
_cell_angle_alpha                 90.09424534950544 
_cell_angle_beta                  90.06555454853789 
_cell_angle_gamma                 90.01450647428513 
loop_ 
_atom_site_label 
_atom_site_type_symbol 
_atom_site_fract_x 
_atom_site_fract_y 
_atom_site_fract_z 
_atom_site_charge 
O1          O  0.80915851  0.52138178  0.87738743    -0.71900
O2          O  0.85156829  0.46854925  0.84811106    -0.72100
O3          O  0.81111429  0.46897148  0.88016089    -0.72000
O4          O  0.84950654  0.52050373  0.84501363    -0.72000
O5          O  0.87464061  0.52461678  0.87840317    -0.72000
O6          O  0.83781033  0.47084986  0.91259785    -0.72000
O7          O  0.87815000  0.47280097  0.88035664    -0.71900
O8          O  0.83440347  0.52282399  0.91104241    -0.72100
V9          V  0.83076344  0.49493417  0.86333595     1.35200
V10         V  0.85571099  0.49774517  0.89498568     1.35200
C11         C  0.81458982  0.53094344  0.89936758     0.77300
C12         C  0.87242496  0.46203086  0.85910741     0.77400
C13         C  0.81830568  0.46054774  0.90201225     0.77300
C14         C  0.86864575  0.53139410  0.85557392     0.77200
O15         O  0.69456089  0.66334981  0.05345963    -0.71900
O16         O  0.65766088  0.70102398  0.00290570    -0.72100
O17         O  0.69163993  0.66207012  0.00206685    -0.72000
O18         O  0.66051839  0.70239989  0.05479620    -0.72000
O19         O  0.69095058  0.73108350  0.05152656    -0.72000
O20         O  0.72381477  0.68893085  0.00075019    -0.72000
O21         O  0.68963082  0.72791546  0.99935430    -0.71900
O22         O  0.72523525  0.69192504  0.05233629    -0.72100
V23         V  0.67664208  0.68284054  0.02830314     1.35200
V24         V  0.70675783  0.70954911  0.02605781     1.35200
C25         C  0.71655158  0.67073461  0.06100356     0.77300
C26         C  0.66767483  0.72036569  0.99178920     0.77400
C27         C  0.71346709  0.66806304  0.99298939     0.77300
C28         C  0.67020597  0.72370215  0.06212473     0.77200
O29         O  0.50138961  0.87895757  0.83591492    -0.71900
O30         O  0.55479854  0.84569591  0.87290204    -0.72100
O31         O  0.55281017  0.87845834  0.83268630    -0.72000
O32         O  0.50361275  0.84646684  0.87606149    -0.72000
O33         O  0.50177889  0.81346715  0.84985582    -0.72000
O34         O  0.55072271  0.84586285  0.80596176    -0.72000
O35         O  0.55308482  0.81313482  0.84622340    -0.71900
O36         O  0.49910411  0.84603194  0.80966074    -0.72100
V37         V  0.52814684  0.86179379  0.85381823     1.35200
V38         V  0.52622218  0.83028197  0.82836924     1.35200
C39         C  0.49085962  0.86800771  0.81668567     0.77300
C40         C  0.56275273  0.82349673  0.86622705     0.77400
C41         C  0.56013192  0.86773422  0.81192420     0.77300
C42         C  0.49467127  0.82430405  0.87068795     0.77200
O43         O  0.75700309  0.01768379  0.68573812    -0.71900
O44         O  0.71473455  0.96668096  0.71758143    -0.72100
O45         O  0.75583209  0.96550386  0.68626519    -0.72000
O46         O  0.71589038  0.01841289  0.71727661    -0.72000
O47         O  0.69093796  0.01932817  0.68349362    -0.72000
O48         O  0.73005767  0.96507768  0.65312047    -0.72000
O49         O  0.68900509  0.96785692  0.68429854    -0.71900
O50         O  0.73201301  0.01724639  0.65198342    -0.72100
V51         V  0.73546822  0.99209703  0.70101455     1.35200
V52         V  0.71110390  0.99238244  0.66879038     1.35200
C53         C  0.75164407  0.02624778  0.66337483     0.77300
C54         C  0.69417810  0.95929699  0.70662830     0.77400
C55         C  0.74943971  0.95574673  0.66469742     0.77300
C56         C  0.69612672  0.02737528  0.70608344     0.77200
O57         O  0.00303454  0.62380529  0.73030088    -0.71900
O58         O  0.05592597  0.65454187  0.68989343    -0.72100
O59         O  0.05456313  0.62480641  0.73236246    -0.72000
O60         O  0.00433365  0.65323653  0.68769245    -0.72000
O61         O  0.00149405  0.68728632  0.71230575    -0.72000
O62         O  0.05404423  0.65966835  0.75600031    -0.72000
O63         O  0.05325170  0.68944680  0.71335407    -0.71900
O64         O  0.00226264  0.65781102  0.75513458    -0.72100
V65         V  0.02943754  0.63976301  0.71055811     1.35200
V66         V  0.02779725  0.67292454  0.73374088     1.35200
C67         C  0.99364113  0.63551713  0.74971757     0.77300
C68         C  0.06343879  0.67744356  0.69456937     0.77400
C69         C  0.06316697  0.63727600  0.75164349     0.77300
C70         C  0.99406219  0.67497992  0.69236211     0.77200
O71         O  0.87576613  0.83277765  0.55797794    -0.71900
O72         O  0.90395725  0.79698343  0.50063656    -0.72100
O73         O  0.87451335  0.83930872  0.50669297    -0.72000
O74         O  0.90522928  0.79047288  0.55191610    -0.72000
O75         O  0.87022890  0.76732007  0.55134233    -0.72000
O76         O  0.84103629  0.81434507  0.50276201    -0.72000
O77         O  0.87063883  0.77154940  0.49954712    -0.71900
O78         O  0.84069923  0.80998795  0.55454365    -0.72100
V79         V  0.88921119  0.81438959  0.52925779     1.35200
V80         V  0.85627319  0.79124579  0.52707384     1.35200
C81         C  0.85309746  0.82808085  0.56552045     0.77300
C82         C  0.89249719  0.77771612  0.49069620     0.77400
C83         C  0.85252069  0.83525094  0.49698500     0.77300
C84         C  0.89299653  0.77066273  0.55947579     0.77200
O85         O  0.51468242  0.15638742  0.87765545    -0.71900
O86         O  0.56040537  0.11753952  0.83548988    -0.72100
O87         O  0.56548929  0.15019012  0.87594675    -0.72000
O88         O  0.50919377  0.12373737  0.83775745    -0.72000
O89         O  0.51102217  0.15663235  0.81160637    -0.72000
O90         O  0.56923393  0.18216715  0.84884257    -0.72000
O91         O  0.56223500  0.14963971  0.80837352    -0.71900
O92         O  0.51846919  0.18910158  0.85150310    -0.72100
V93         V  0.53755317  0.13752910  0.85611618     1.35200
V94         V  0.54024827  0.16870779  0.83049729     1.35200
C95         C  0.50925939  0.17964485  0.87208227     0.77300
C96         C  0.56890837  0.12686320  0.81449900     0.77400
C97         C  0.57637449  0.17117459  0.86959092     0.77300
C98         C  0.49988537  0.13593871  0.81871703     0.77200
O99         O  0.69831775  0.33291712  0.00725693    -0.71900
O100        O  0.66595944  0.29752627  0.06280238    -0.72100
O101        O  0.69914100  0.33717428  0.05882526    -0.72000
O102        O  0.66508879  0.29340366  0.01092413    -0.72000
O103        O  0.69701510  0.26631675  0.01211275    -0.72000
O104        O  0.73121972  0.31027873  0.06078992    -0.72000
O105        O  0.69773732  0.27025391  0.06441938    -0.71900
O106        O  0.73042680  0.30600251  0.00899666    -0.72100
V107        V  0.68273052  0.31464933  0.03501183     1.35200
V108        V  0.71346035  0.28863663  0.03659551     1.35200
C109        C  0.72007470  0.32578365  0.99884715     0.77300
C110        C  0.67630979  0.27792451  0.07329209     0.77400
C111        C  0.72119974  0.33164482  0.06764468     0.77300
C112        C  0.67533366  0.27272063  0.00275870     0.77200
O113        O  0.81012468  0.48071467  0.18703077    -0.71900
O114        O  0.85076956  0.53338378  0.21926982    -0.72100
O115        O  0.81129053  0.53293844  0.18544707    -0.72000
O116        O  0.84919349  0.48165459  0.22096272    -0.72000
O117        O  0.87589897  0.47898451  0.18868381    -0.72000
O118        O  0.83905933  0.53216576  0.15404530    -0.72000
O119        O  0.87826522  0.53074535  0.18773376    -0.71900
O120        O  0.83672137  0.48026705  0.15445937    -0.72100
V121        V  0.83079399  0.50715508  0.20251702     1.35200
V122        V  0.85691995  0.50553017  0.17181898     1.35200
C123        C  0.81654952  0.47169556  0.16511607     0.77300
C124        C  0.87186910  0.54060079  0.20925033     0.77400
C125        C  0.81885709  0.54170265  0.16391554     0.77300
C126        C  0.86923709  0.47185921  0.21116611     0.77200
O127        O  0.01570690  0.65981358  0.30542944    -0.71900
O128        O  0.06477367  0.68873986  0.35218807    -0.72100
O129        O  0.06745211  0.65866130  0.30958356    -0.72000
O130        O  0.01345323  0.68988316  0.34799502    -0.72000
O131        O  0.00983001  0.65490431  0.37119740    -0.72000
O132        O  0.06567537  0.62493390  0.33473527    -0.72000
O133        O  0.06067761  0.65496300  0.37709603    -0.71900
O134        O  0.01450236  0.62480481  0.32885015    -0.72100
V135        V  0.04031705  0.67360235  0.32919604     1.35200
V136        V  0.03774448  0.64053336  0.35242324     1.35200
C137        C  0.00698229  0.63716007  0.30909892     0.77300
C138        C  0.07013503  0.67720746  0.37316610     0.77400
C139        C  0.07600109  0.63654421  0.31581655     0.77300
C140        C  0.00261413  0.67782680  0.36632731     0.77200
O141        O  0.22383070  0.81915838  0.56343891    -0.71900
O142        O  0.19159793  0.77672252  0.51277617    -0.72100
O143        O  0.22360077  0.81789590  0.51156600    -0.72000
O144        O  0.19191673  0.77818320  0.56461414    -0.72000
O145        O  0.15950157  0.80476503  0.56461781    -0.72000
O146        O  0.19038830  0.84339669  0.51039569    -0.72000
O147        O  0.15831433  0.80217260  0.51295432    -0.71900
O148        O  0.19141539  0.84567088  0.56214613    -0.72100
V149        V  0.20710895  0.79848845  0.53804246     1.35200
V150        V  0.17552761  0.82349516  0.53750043     1.35200
C151        C  0.21334230  0.83989831  0.57121238     0.77300
C152        C  0.16915023  0.78175907  0.50470180     0.77400
C153        C  0.21264039  0.83773715  0.50217797     0.77300
C154        C  0.17025739  0.78474140  0.57374739     0.77200
O155        O  0.33020539  0.03351561  0.66426916    -0.71900
O156        O  0.36817020  0.98146025  0.69857668    -0.72100
O157        O  0.32908764  0.98183155  0.66478569    -0.72000
O158        O  0.36945529  0.03294208  0.69801905    -0.72000
O159        O  0.34190679  0.03487484  0.72967721    -0.72000
O160        O  0.30220100  0.98190400  0.69705000    -0.72000
O161        O  0.34141102  0.98285460  0.73096417    -0.71900
O162        O  0.30242668  0.03404113  0.69571620    -0.72100
V163        V  0.34863861  0.00747579  0.68203387     1.35200
V164        V  0.32245302  0.00843698  0.71275298     1.35200
C165        C  0.30959937  0.04234855  0.67381701     0.77300
C166        C  0.36157891  0.97363895  0.72079480     0.77400
C167        C  0.30884928  0.97309620  0.67512666     0.77300
C168        C  0.36292274  0.04228346  0.71968755     0.77200
O169        O  0.75119090  0.97637837  0.37826515    -0.71900
O170        O  0.70561315  0.02627498  0.34924021    -0.72100
O171        O  0.74920403  0.02837133  0.37745362    -0.72000
O172        O  0.70792224  0.97445989  0.34994372    -0.72000
O173        O  0.68488523  0.97393085  0.38503526    -0.72000
O174        O  0.72653853  0.02800311  0.41278395    -0.72000
O175        O  0.68294217  0.02571976  0.38460217    -0.71900
O176        O  0.72833596  0.97609835  0.41343859    -0.72100
V177        V  0.72805054  0.00138677  0.36441478     1.35200
V178        V  0.70615139  0.00096610  0.39831592     1.35200
C179        C  0.74755789  0.96772325  0.40091244     0.77300
C180        C  0.68610749  0.03401178  0.36179326     0.77400
C181        C  0.74522474  0.03720133  0.39995505     0.77300
C182        C  0.68922369  0.96516025  0.36251402     0.77200
O183        O  0.50723219  0.83749725  0.25718139    -0.71900
O184        O  0.56074354  0.80792265  0.21640894    -0.72100
O185        O  0.55860485  0.83837382  0.25878549    -0.72000
O186        O  0.50916766  0.80675512  0.21503953    -0.72000
O187        O  0.50878914  0.84097414  0.19051491    -0.72000
O188        O  0.55916376  0.87229941  0.23395386    -0.72000
O189        O  0.56023727  0.84187651  0.19158361    -0.71900
O190        O  0.50783179  0.87170551  0.23270513    -0.72100
V191        V  0.53393762  0.82327320  0.23636302     1.35200
V192        V  0.53399119  0.85605344  0.21266248     1.35200
C193        C  0.49883944  0.86000764  0.25222088     0.77300
C194        C  0.56936370  0.81973020  0.19673073     0.77400
C195        C  0.56713293  0.86084546  0.25414567     0.77300
C196        C  0.50078579  0.81822671  0.19509600     0.77200
O197        O  0.23231405  0.52905318  0.90072442    -0.71900
O198        O  0.19514485  0.47218332  0.87298641    -0.72100
O199        O  0.23757188  0.47747848  0.90217268    -0.72000
O200        O  0.18981079  0.52378924  0.87180826    -0.72000
O201        O  0.21431014  0.52717820  0.83784311    -0.72000
O202        O  0.25997232  0.47691123  0.86658519    -0.72000
O203        O  0.21717192  0.47513713  0.83735140    -0.71900
O204        O  0.25715648  0.52908063  0.86686582    -0.72100
V205        V  0.21419183  0.50062628  0.88625428     1.35200
V206        V  0.23672942  0.50203239  0.85279495     1.35200
C207        C  0.25123752  0.53863867  0.88865193     0.77300
C208        C  0.19938883  0.46435689  0.85012956     0.77400
C209        C  0.25677680  0.46915046  0.88964362     0.77300
C210        C  0.19397985  0.53364321  0.84980069     0.77200
O211        O  0.34770084  0.67511757  0.05812971    -0.71900
O212        O  0.37725248  0.71863341  0.00687437    -0.72100
O213        O  0.34652957  0.67706925  0.00618201    -0.72000
O214        O  0.37850215  0.71696176  0.05883557    -0.72000
O215        O  0.41165850  0.69123240  0.05790792    -0.72000
O216        O  0.38033272  0.65232381  0.00389002    -0.72000
O217        O  0.41121919  0.69398207  0.00597624    -0.71900
O218        O  0.38085779  0.64955492  0.05580809    -0.72100
V219        V  0.36314981  0.69646118  0.03249828     1.35200
V220        V  0.39538553  0.67226892  0.03092375     1.35200
C221        C  0.35916688  0.65477716  0.06564316     0.77300
C222        C  0.39926245  0.71367106  0.99764844     0.77400
C223        C  0.35794617  0.65793967  0.99598404     0.77300
C224        C  0.40043904  0.71079161  0.06753384     0.77200
O225        O  0.23952021  0.46806093  0.16835251    -0.71900
O226        O  0.20246279  0.52436124  0.19709869    -0.72100
O227        O  0.24348889  0.51956028  0.16578840    -0.72000
O228        O  0.19846468  0.47269363  0.19948090    -0.72000
O229        O  0.22453803  0.47066501  0.23229415    -0.72000
O230        O  0.26763725  0.52117543  0.20025018    -0.72000
O231        O  0.22637494  0.52269621  0.23160409    -0.71900
O232        O  0.26603695  0.46906632  0.20088620    -0.72100
V233        V  0.22148051  0.49616843  0.18334051     1.35200
V234        V  0.24570214  0.49588006  0.21564127     1.35200
C235        C  0.25952611  0.45936014  0.17932240     0.77300
C236        C  0.20765898  0.53277035  0.21956320     0.77400
C237        C  0.26304331  0.52855345  0.17731406     0.77300
C238        C  0.20366218  0.46360712  0.22165025     0.77200
O239        O  0.35212580  0.32339708  0.00199632    -0.71900
O240        O  0.38571942  0.28302469  0.05337932    -0.72100
O241        O  0.35135624  0.32172434  0.05413480    -0.72000
O242        O  0.38667823  0.28467991  0.00164055    -0.72000
O243        O  0.41773811  0.31285792  0.00312734    -0.72000
O244        O  0.38257516  0.34976158  0.05554783    -0.72000
O245        O  0.41688464  0.31110329  0.05484010    -0.71900
O246        O  0.38328543  0.35144269  0.00353202    -0.72100
V247        V  0.36952896  0.30377277  0.02779130     1.35200
V248        V  0.39947945  0.33078024  0.02921832     1.35200
C249        C  0.36202655  0.34427666  0.99381784     0.77300
C250        C  0.40715704  0.29004564  0.06273723     0.77400
C251        C  0.36114445  0.34189822  0.06408471     0.77300
C252        C  0.40848740  0.29221969  0.99374069     0.77200
O253        O  0.55367790  0.16809003  0.26789060    -0.71900
O254        O  0.50629240  0.20084846  0.22207520    -0.72100
O255        O  0.50204926  0.16952216  0.26361341    -0.72000
O256        O  0.55778266  0.19958544  0.22623398    -0.72000
O257        O  0.55973222  0.16517093  0.20199754    -0.72000
O258        O  0.50238658  0.13668111  0.23719150    -0.72000
O259        O  0.50880107  0.16770211  0.19616386    -0.71900
O260        O  0.55326837  0.13391574  0.24314053    -0.72100
V261        V  0.52999247  0.18389538  0.24452594     1.35200
V262        V  0.53105652  0.15153457  0.22016577     1.35200
C263        C  0.56105479  0.14507992  0.26351611     0.77300
C264        C  0.49995609  0.19004183  0.20095400     0.77400
C265        C  0.49251659  0.14800785  0.25653019     0.77300
C266        C  0.56806276  0.18762253  0.20743043     0.77200
O267        O  0.00488355  0.34233302  0.69352052    -0.71900
O268        O  0.05936539  0.37271627  0.73197633    -0.72100
O269        O  0.05616907  0.34280789  0.68920554    -0.72000
O270        O  0.00802202  0.37224197  0.73577457    -0.72000
O271        O  0.00859895  0.33713531  0.75893225    -0.72000
O272        O  0.06021799  0.30920902  0.71439279    -0.72000
O273        O  0.06022119  0.33902459  0.75714342    -0.71900
O274        O  0.00854137  0.30719792  0.71639647    -0.72100
V275        V  0.03222552  0.35687812  0.71309838     1.35200
V276        V  0.03438643  0.32378174  0.73626578     1.35200
C277        C  0.99751780  0.31942465  0.69829812     0.77300
C278        C  0.06863237  0.36133394  0.75162547     0.77400
C279        C  0.06629038  0.32098290  0.69375353     0.77300
C280        C  0.99961531  0.35965349  0.75501998     0.77200
O281        O  0.87234954  0.16145031  0.50756097    -0.71900
O282        O  0.90167467  0.20077341  0.56221145    -0.72100
O283        O  0.87122459  0.15902437  0.55929506    -0.72000
O284        O  0.90314542  0.20327012  0.51063454    -0.72000
O285        O  0.86924883  0.22799588  0.50995623    -0.72000
O286        O  0.83796976  0.18451494  0.56075304    -0.72000
O287        O  0.86863484  0.22657067  0.56195026    -0.71900
O288        O  0.83834451  0.18598114  0.50864037    -0.72100
V289        V  0.88642675  0.18164075  0.53490928     1.35200
V290        V  0.85414763  0.20578604  0.53529356     1.35200
C291        C  0.85011656  0.16675330  0.49901332     0.77300
C292        C  0.89036102  0.22056446  0.57124433     0.77400
C293        C  0.84923226  0.16411905  0.56845859     0.77300
C294        C  0.89194487  0.22333666  0.50222785     0.77200
O295        O  0.22130494  0.18251283  0.50260506    -0.71900
O296        O  0.19077276  0.22738864  0.55245061    -0.72100
O297        O  0.22129164  0.18546653  0.55443280    -0.72000
O298        O  0.19111274  0.22438756  0.50045202    -0.72000
O299        O  0.15745189  0.19935677  0.50131225    -0.72000
O300        O  0.18751969  0.16071501  0.55597042    -0.72000
O301        O  0.15705044  0.20247304  0.55322937    -0.71900
O302        O  0.18772776  0.15748884  0.50415331    -0.72100
V303        V  0.20546569  0.20447720  0.52751173     1.35200
V304        V  0.17306080  0.18052437  0.52864585     1.35200
C305        C  0.20976118  0.16222880  0.49494913     0.77300
C306        C  0.16863521  0.22246097  0.56146858     0.77400
C307        C  0.20971672  0.16633404  0.56437941     0.77300
C308        C  0.16921962  0.21849721  0.49155538     0.77200
O309        O  0.33877157  0.97401772  0.41000746    -0.71900
O310        O  0.37731091  0.02741154  0.37813914    -0.72100
O311        O  0.33578572  0.02575954  0.40901720    -0.72000
O312        O  0.38009144  0.97568938  0.37899856    -0.72000
O313        O  0.35456841  0.97281340  0.34575913    -0.72000
O314        O  0.31148965  0.02452744  0.37466268    -0.72000
O315        O  0.35293160  0.02492835  0.34390845    -0.71900
O316        O  0.31302587  0.97248604  0.37691143    -0.72100
V317        V  0.35748120  0.00068097  0.39338324     1.35200
V318        V  0.33348025  0.99868777  0.36092955     1.35200
C319        C  0.31906385  0.96438738  0.39930543     0.77300
C320        C  0.37196500  0.03505622  0.35550906     0.77400
C321        C  0.31622007  0.03381849  0.39681999     0.77300
C322        C  0.37495750  0.96573637  0.35719124     0.77200
O323        O  0.00388561  0.38095361  0.34044110    -0.71900
O324        O  0.05743343  0.34582236  0.37568146    -0.72100
O325        O  0.05525465  0.37962308  0.33635402    -0.72000
O326        O  0.00611528  0.34723628  0.37998144    -0.72000
O327        O  0.00200207  0.31575052  0.35227326    -0.72000
O328        O  0.05350568  0.34682328  0.30983360    -0.72000
O329        O  0.05349074  0.31318052  0.34923226    -0.71900
O330        O  0.00182550  0.34939813  0.31255439    -0.72100
V331        V  0.03060093  0.36279430  0.35757754     1.35200
V332        V  0.02771616  0.33192430  0.33145676     1.35200
C333        C  0.99394381  0.37131384  0.32022971     0.77300
C334        C  0.06440284  0.32337644  0.36861472     0.77400
C335        C  0.06310020  0.36861161  0.31591055     0.77300
C336        C  0.99563044  0.32595322  0.37369748     0.77200
C337        C  0.15753853  0.23362885  0.47037481    -0.20000
C338        C  0.16550719  0.25933116  0.46489961     0.36200
C339        C  0.15285043  0.27326570  0.44540134    -0.26000
C340        C  0.13203902  0.26238675  0.43194300     0.02600
C341        C  0.12459492  0.23652123  0.43667956     0.27500
C342        C  0.13760265  0.22229752  0.45576435    -0.25100
N343        N  0.18565119  0.27159097  0.47971777    -0.82500
H344        H  0.15839691  0.29318208  0.44146452     0.13300
C345        C  0.11651151  0.27923741  0.41505832     0.02600
N346        N  0.10340379  0.22512596  0.42267554    -0.81100
H347        H  0.13172959  0.20247604  0.45965329     0.18100
C348        C  0.11369570  0.27300040  0.38876068    -0.25900
C349        C  0.09750705  0.28774538  0.37272406     0.36100
C350        C  0.08394407  0.30902154  0.38346589    -0.19900
C351        C  0.08774673  0.31581384  0.40954645    -0.25200
C352        C  0.10365097  0.30093253  0.42556689     0.27500
H353        H  0.12393622  0.25641938  0.38088130     0.13300
N354        N  0.09473414  0.28113052  0.34574230    -0.82500
H355        H  0.07734813  0.33209261  0.41782366     0.18100
N356        N  0.10616804  0.30722383  0.45266675    -0.81100
H357        H  0.10578438  0.26475830  0.34116034     0.33700
H358        H  0.10225833  0.29652090  0.33491037     0.38200
H359        H  0.09554502  0.32388304  0.45723862     0.33700
H360        H  0.09805880  0.29197839  0.46326862     0.30400
H361        H  0.10058119  0.20584420  0.42836214     0.33700
H362        H  0.08668210  0.23524656  0.42780480     0.30400
H363        H  0.17884166  0.27397314  0.49866524     0.38300
H364        H  0.18944896  0.29025140  0.47268421     0.33700
C365        C  0.22223719  0.14426220  0.47631155    -0.20000
C366        C  0.21233451  0.11909217  0.47113503     0.36200
C367        C  0.22695863  0.10173690  0.45617696    -0.26000
C368        C  0.25081941  0.10913234  0.44595710     0.02600
C369        C  0.26003034  0.13454544  0.44970491     0.27500
C370        C  0.24559772  0.15190854  0.46478148    -0.25100
N371        N  0.18799627  0.11086284  0.48164206    -0.82500
H372        H  0.22002419  0.08213515  0.45286704     0.13300
C373        C  0.26693275  0.08945266  0.43311086     0.02600
N374        N  0.28439508  0.14229182  0.43889119    -0.81100
H375        H  0.25311132  0.17125416  0.46821265     0.18100
C376        C  0.27218997  0.09169127  0.40656463    -0.25900
C377        C  0.28810462  0.07356796  0.39402218     0.36100
C378        C  0.29902415  0.05311673  0.40860811    -0.19900
C379        C  0.29384680  0.05109209  0.43520832    -0.25200
C380        C  0.27783595  0.06907836  0.44763926     0.27500
H381        H  0.26387745  0.10764677  0.39570166     0.13300
N382        N  0.29405873  0.07652494  0.36693725    -0.82500
H383        H  0.30228299  0.03535315  0.44629894     0.18100
N384        N  0.27280202  0.06698742  0.47499606    -0.81100
H385        H  0.28611748  0.09374639  0.35974196     0.33700
H386        H  0.28492685  0.06144209  0.35691126     0.38200
H387        H  0.28216540  0.05076130  0.48277996     0.33700
H388        H  0.28082029  0.08328797  0.48403673     0.30400
H389        H  0.28832845  0.16173780  0.44332277     0.33700
H390        H  0.29876820  0.13125077  0.44785392     0.30400
H391        H  0.17359977  0.12162841  0.47236713     0.38300
H392        H  0.18438969  0.09138781  0.47708150     0.33700
C393        C  0.90542867  0.24087740  0.48404139    -0.20000
C394        C  0.93261042  0.24314538  0.48454478     0.36200
C395        C  0.94498123  0.25873761  0.46608600    -0.26000
C396        C  0.93083443  0.27241874  0.44744232     0.02600
C397        C  0.90371130  0.27100005  0.44740755     0.27500
C398        C  0.89120590  0.25520294  0.46577896    -0.25100
N399        N  0.94755701  0.22985234  0.50395270    -0.82500
H400        H  0.96583272  0.26019817  0.46612309     0.13300
C401        C  0.94508238  0.28786186  0.42799904     0.02600
N402        N  0.88908885  0.28553435  0.42870104    -0.81100
H403        H  0.87036700  0.25370027  0.46554577     0.18100
C404        C  0.94612308  0.27917199  0.40225133    -0.25900
C405        C  0.96200179  0.29155790  0.38400800     0.36100
C406        C  0.97707091  0.31318052  0.39158233    -0.19900
C407        C  0.97515502  0.32234657  0.41726614    -0.25200
C408        C  0.95937581  0.30986259  0.43553151     0.27500
H409        H  0.93514117  0.26219196  0.39648057     0.13300
N410        N  0.96284633  0.28192130  0.35793848    -0.82500
H411        H  0.98648950  0.33895165  0.42337231     0.18100
N412        N  0.95812652  0.31908578  0.46185339    -0.81100
H413        H  0.94415155  0.28252237  0.35034757     0.33700
H414        H  0.96870280  0.26249046  0.35853223     0.38200
H415        H  0.96995484  0.33535459  0.46435059     0.33700
H416        H  0.93922153  0.32525288  0.46526841     0.30400
H417        H  0.86934378  0.28231655  0.43123928     0.33700
H418        H  0.89227808  0.30526171  0.43237990     0.30400
H419        H  0.94262919  0.23773545  0.52199254     0.38300
H420        H  0.96724867  0.23339152  0.50139753     0.33700
C421        C  0.90284975  0.23636046  0.59170365    -0.20000
C422        C  0.89017221  0.25721923  0.60437696     0.36200
C423        C  0.90377391  0.27207897  0.62273911    -0.26000
C424        C  0.92940116  0.26620613  0.62881638     0.02600
C425        C  0.94201127  0.24548672  0.61639970     0.27500
C426        C  0.92859583  0.23070445  0.59807881    -0.25100
N427        N  0.86369268  0.26325562  0.59872080    -0.82500
H428        H  0.89436633  0.28812384  0.63254534     0.13300
C429        C  0.94331369  0.28178834  0.64817164     0.02600
N430        N  0.96851324  0.23974533  0.62235243    -0.81100
H431        H  0.93855426  0.21491310  0.58844118     0.18100
C432        C  0.94970411  0.27026607  0.67186690    -0.25900
C433        C  0.96638402  0.28269187  0.68929804     0.36100
C434        C  0.97713282  0.30704049  0.68250403    -0.19900
C435        C  0.96936443  0.31916068  0.65933595    -0.25200
C436        C  0.95262250  0.30665810  0.64199321     0.27500
H437        H  0.94219828  0.25113773  0.67636923     0.13300
N438        N  0.97274548  0.27040468  0.71351746    -0.82500
H439        H  0.97723618  0.33794110  0.65413774     0.18100
N440        N  0.94577930  0.31862887  0.61775013    -0.81100
H441        H  0.96371194  0.25229961  0.71502842     0.33700
H442        H  0.96518882  0.28195902  0.72838012     0.38200
H443        H  0.95416143  0.33704521  0.61625873     0.33700
H444        H  0.95365666  0.30735917  0.60283647     0.30400
H445        H  0.97491506  0.22372494  0.61165680     0.33700
H446        H  0.97962318  0.25560965  0.61639433     0.30400
H447        H  0.85247736  0.24775884  0.60538375     0.38300
H448        H  0.85773180  0.27964242  0.60913075     0.33700
C449        C  0.08371022  0.30907361  0.67462095    -0.20000
C450        C  0.07583847  0.30647659  0.64853798     0.36200
C451        C  0.09228537  0.29429028  0.63071327    -0.26000
C452        C  0.11627609  0.28455989  0.63851227     0.02600
C453        C  0.12444248  0.28755578  0.66443151     0.27500
C454        C  0.10794058  0.29975207  0.68238139    -0.25100
N455        N  0.05077938  0.31537282  0.64050336    -0.82500
H456        H  0.08605457  0.29153305  0.61081208     0.13300
C457        C  0.13095046  0.26853618  0.61991060     0.02600
N458        N  0.14920461  0.27788062  0.67240783    -0.81100
H459        H  0.11388031  0.30189698  0.70243895     0.18100
C460        C  0.15201063  0.27905485  0.60653778    -0.25900
C461        C  0.16478306  0.26459257  0.58718589     0.36100
C462        C  0.15635953  0.23900969  0.58154063    -0.19900
C463        C  0.13546212  0.22860432  0.59542095    -0.25200
C464        C  0.12273064  0.24307324  0.61450495     0.27500
H465        H  0.15801573  0.29878242  0.61076564     0.13300
N466        N  0.18578186  0.27599480  0.57301337    -0.82500
H467        H  0.12897503  0.20898436  0.59144693     0.18100
N468        N  0.10120042  0.23217313  0.62828797    -0.81100
H469        H  0.18975888  0.29468787  0.57993131     0.33700
H470        H  0.17977291  0.27815009  0.55376236     0.38200
H471        H  0.09732069  0.21331119  0.62178737     0.33700
H472        H  0.10649100  0.23061334  0.64780303     0.30400
H473        H  0.15237340  0.28184767  0.69205402     0.33700
H474        H  0.14887965  0.25764863  0.67050854     0.30400
H475        H  0.03700341  0.30418872  0.65023523     0.38300
H476        H  0.04799512  0.31200149  0.62069013     0.33700
C477        C  0.47093503  0.13587034  0.27091509    -0.20000
C478        C  0.45643338  0.11521585  0.26004364     0.36200
C479        C  0.43830281  0.10222899  0.27542695    -0.26000
C480        C  0.43417439  0.10952148  0.30122306     0.02600
C481        C  0.44748488  0.13086445  0.31179495     0.27500
C482        C  0.46574108  0.14395326  0.29648264    -0.25100
N483        N  0.46036228  0.10720109  0.23359413    -0.82500
H484        H  0.42780912  0.08579840  0.26752140     0.13300
C485        C  0.41759103  0.09284889  0.31732508     0.02600
N486        N  0.44283141  0.13865535  0.33817120    -0.81100
H487        H  0.47657752  0.15989421  0.30486732     0.18100
C488        C  0.42938443  0.07502867  0.33403394    -0.25900
C489        C  0.41481639  0.05595866  0.34674202     0.36100
C490        C  0.38784838  0.05511692  0.34289676    -0.19900
C491        C  0.37600734  0.07340334  0.32658942    -0.25200
C492        C  0.39069243  0.09239416  0.31379427     0.27500
H493        H  0.45017340  0.07532103  0.33622726     0.13300
N494        N  0.42741650  0.03682498  0.36263869    -0.82500
H495        H  0.35529530  0.07283310  0.32383512     0.18100
N496        N  0.37858373  0.11094793  0.29690627    -0.81100
H497        H  0.44727864  0.04026391  0.36343341     0.33700
H498        H  0.42501788  0.01876050  0.35363219     0.38200
H499        H  0.35865147  0.10793570  0.29634091     0.33700
H500        H  0.38146600  0.12938651  0.30495690     0.30400
H501        H  0.45431693  0.15463403  0.34306334     0.33700
H502        H  0.42367807  0.14488007  0.33936402     0.30400
H503        H  0.45448941  0.12252318  0.22167017     0.38300
H504        H  0.44858871  0.09136280  0.22894813     0.33700
C505        C  0.48366014  0.20325648  0.18148144    -0.20000
C506        C  0.46722075  0.22428000  0.18778357     0.36200
C507        C  0.45329203  0.23656578  0.16789662    -0.26000
C508        C  0.45585352  0.22853000  0.14207610     0.02600
C509        C  0.47162639  0.20728820  0.13578452     0.27500
C510        C  0.48527123  0.19474962  0.15556863    -0.25100
N511        N  0.46452530  0.23301308  0.21415435    -0.82500
H512        H  0.44098369  0.25298563  0.17237583     0.13300
C513        C  0.44328053  0.24366945  0.12152306     0.02600
N514        N  0.47415550  0.19900345  0.10924401    -0.81100
H515        H  0.49779611  0.17866689  0.15054551     0.18100
C516        C  0.45778127  0.26236200  0.10835229    -0.25900
C517        C  0.44665290  0.27750362  0.08872430     0.36100
C518        C  0.42026589  0.27401065  0.08255366    -0.19900
C519        C  0.40596261  0.25486169  0.09565824    -0.25200
C520        C  0.41729556  0.23955597  0.11505116     0.27500
H521        H  0.47790731  0.26502796  0.11340293     0.13300
N522        N  0.46213581  0.29613479  0.07499004    -0.82500
H523        H  0.38580250  0.25195442  0.09095122     0.18100
N524        N  0.40256589  0.22002589  0.12835455    -0.81100
H525        H  0.48090389  0.29659245  0.08240935     0.33700
H526        H  0.46364788  0.28975753  0.05577166     0.38200
H527        H  0.38361188  0.21961811  0.12142315     0.33700
H528        H  0.41064992  0.20196351  0.12387323     0.30400
H529        H  0.48684458  0.18327843  0.10784588     0.33700
H530        H  0.45613534  0.19225577  0.10310523     0.30400
H531        H  0.48164750  0.24243257  0.21928462     0.38300
H532        H  0.45002461  0.24706189  0.21553751     0.33700
C533        C  0.34785255  0.35641903  0.08482830    -0.20000
C534        C  0.32743527  0.34543189  0.09930384     0.36200
C535        C  0.31408065  0.36102033  0.11711861    -0.26000
C536        C  0.32098791  0.38704744  0.12093615     0.02600
C537        C  0.34212153  0.39766349  0.10754775     0.27500
C538        C  0.35545975  0.38217109  0.08972455    -0.25100
N539        N  0.32025414  0.31865783  0.09585796    -0.82500
H540        H  0.29792266  0.35304398  0.12779108     0.13300
C541        C  0.30460503  0.40365501  0.13730091     0.02600
N542        N  0.34938980  0.42435345  0.11150595    -0.81100
H543        H  0.37127954  0.39061526  0.07891794     0.18100
C544        C  0.31492018  0.41502727  0.15970908    -0.25900
C545        C  0.30038249  0.43260703  0.17453777     0.36100
C546        C  0.27500262  0.43889478  0.16651468    -0.19900
C547        C  0.26460742  0.42672465  0.14440899    -0.25200
C548        C  0.27922322  0.40936891  0.12959753     0.27500
H549        H  0.33453031  0.41043313  0.16536174     0.13300
N550        N  0.31166886  0.44460500  0.19706104    -0.82500
H551        H  0.24519004  0.43130742  0.13814490     0.18100
N552        N  0.26870575  0.39809998  0.10630998    -0.81100
H553        H  0.33093451  0.43900317  0.19916489     0.33700
H554        H  0.30198450  0.43739097  0.21331086     0.38200
H555        H  0.24970442  0.40424546  0.10341524     0.33700
H556        H  0.27939629  0.40515475  0.09063757     0.30400
H557        H  0.36549523  0.42906662  0.10027542     0.33700
H558        H  0.33424078  0.43598402  0.10484466     0.30400
H559        H  0.33572958  0.30727761  0.10218348     0.38300
H560        H  0.30458827  0.31391286  0.10769626     0.33700
C561        C  0.18509540  0.44582796  0.23468101    -0.20000
C562        C  0.18816400  0.43751202  0.26072581     0.36200
C563        C  0.16880409  0.42226847  0.27230389    -0.26000
C564        C  0.14639416  0.41560487  0.25865525     0.02600
C565        C  0.14350698  0.42321959  0.23265535     0.27500
C566        C  0.16291935  0.43806245  0.22087922    -0.25100
N567        N  0.21039884  0.44505678  0.27562413    -0.82500
H568        H  0.17066474  0.41643070  0.29241685     0.13300
C569        C  0.12489612  0.40302512  0.27257386     0.02600
N570        N  0.12041815  0.41661429  0.21864345    -0.81100
H571        H  0.16031422  0.44412711  0.20093133     0.18100
C572        C  0.10603087  0.41885036  0.28387856    -0.25900
C573        C  0.08528073  0.40800810  0.29756625     0.36100
C574        C  0.08348345  0.38072850  0.29998160    -0.19900
C575        C  0.10214877  0.36487783  0.28813872    -0.25200
C576        C  0.12299475  0.37581610  0.27453957     0.27500
H577        H  0.10759389  0.43976915  0.28202309     0.13300
N578        N  0.06595981  0.42456602  0.30884837    -0.82500
H579        H  0.10084835  0.34395884  0.29012896     0.18100
N580        N  0.14249724  0.35952330  0.26323011    -0.81100
H581        H  0.07024931  0.44411688  0.30541958     0.33700
H582        H  0.04853035  0.42073391  0.29936384     0.38200
H583        H  0.13845610  0.33994103  0.26678827     0.33700
H584        H  0.14174540  0.36197931  0.24311980     0.30400
H585        H  0.12103018  0.42414287  0.19982534     0.33700
H586        H  0.11985729  0.39639633  0.21674881     0.30400
H587        H  0.20903251  0.46504885  0.27901166     0.38300
H588        H  0.21015358  0.43622757  0.29388136     0.33700
C589        C  0.34709941  0.63726419  0.08494416    -0.20000
C590        C  0.36122696  0.61739505  0.09757612     0.36200
C591        C  0.34827382  0.59998806  0.11398925    -0.21200
C592        C  0.32177919  0.60237785  0.11842136     0.02600
C593        C  0.30779297  0.62258350  0.10663443     0.27500
C594        C  0.32060805  0.63991546  0.09009263    -0.25100
N595        N  0.38857486  0.61489320  0.09376380    -0.82500
H596        H  0.35880333  0.58437803  0.12329900     0.13300
C597        C  0.30851510  0.58270818  0.13430811     0.02600
N598        N  0.28055041  0.62507119  0.11116769    -0.81100
H599        H  0.30964791  0.65510466  0.08061363     0.18100
C600        C  0.30103026  0.58887321  0.15970942    -0.25900
C601        C  0.28700777  0.57100010  0.17473062     0.36100
C602        C  0.28008641  0.54686019  0.16374939    -0.19900
C603        C  0.28795635  0.54064182  0.13846490    -0.25200
C604        C  0.30228779  0.55830353  0.12365378     0.27500
H605        H  0.30586914  0.60777744  0.16762982     0.13300
N606        N  0.27864104  0.57777833  0.20044931    -0.82500
H607        H  0.28261336  0.52202841  0.13017153     0.18100
N608        N  0.31021852  0.55179201  0.09771430    -0.81100
H609        H  0.28428202  0.59674372  0.20505640     0.33700
H610        H  0.28828233  0.56561944  0.21346311     0.38200
H611        H  0.30430842  0.53296186  0.09289593     0.33700
H612        H  0.30067391  0.56433726  0.08498569     0.30400
H613        H  0.27312884  0.64108895  0.10119199     0.33700
H614        H  0.27155265  0.60863335  0.10336006     0.30400
H615        H  0.39729329  0.63140760  0.10172896     0.38300
H616        H  0.39580614  0.59898504  0.10405623     0.33700
C617        C  0.08861434  0.37404269  0.76774780    -0.20000
C618        C  0.09801521  0.36278842  0.79102221     0.36200
C619        C  0.11723613  0.37573065  0.80518214    -0.26000
C620        C  0.12671738  0.39975260  0.79693986     0.02600
C621        C  0.11702763  0.41133209  0.77423481     0.27500
C622        C  0.09826678  0.39824532  0.75971822    -0.25100
N623        N  0.08803454  0.33847703  0.80037969    -0.82500
H624        H  0.12473511  0.36721875  0.82287282     0.13300
C625        C  0.14652931  0.41306341  0.81244281     0.02600
N626        N  0.12617733  0.43644765  0.76619476    -0.81100
H627        H  0.09104464  0.40716824  0.74212877     0.18100
C628        C  0.17083883  0.41720502  0.80147149    -0.25900
C629        C  0.18925393  0.43256268  0.81416451     0.36100
C630        C  0.18288602  0.44424487  0.83818684    -0.19900
C631        C  0.15909955  0.43848551  0.84990523    -0.25200
C632        C  0.14074427  0.42310466  0.83715378     0.27500
H633        H  0.17515312  0.40892327  0.78261541     0.13300
N634        N  0.21408542  0.43669451  0.80249197    -0.82500
H635        H  0.15420170  0.44711363  0.86844426     0.18100
N636        N  0.11592613  0.41848235  0.84868394    -0.81100
H637        H  0.21534055  0.42708407  0.78464599     0.33700
H638        H  0.22786909  0.42818009  0.81462053     0.38200
H639        H  0.11482860  0.42715641  0.86700565     0.33700
H640        H  0.10207451  0.42762289  0.83709865     0.30400
H641        H  0.11716791  0.44220181  0.74896820     0.33700
H642        H  0.12072570  0.44988895  0.78039413     0.30400
H643        H  0.06895777  0.34167777  0.80610955     0.38300
H644        H  0.09793341  0.33252615  0.81702763     0.33700
C645        C  0.34497293  0.64252786  0.97562209    -0.20000
C646        C  0.35144291  0.61627242  0.97080170     0.36200
C647        C  0.33687743  0.60200552  0.95279398    -0.26000
C648        C  0.31598033  0.61334644  0.93981124     0.02600
C649        C  0.31021171  0.63976116  0.94370033     0.27500
C650        C  0.32474999  0.65410401  0.96161845    -0.25100
N651        N  0.37196119  0.60385162  0.98488857    -0.82500
H652        H  0.34101145  0.58157704  0.94978789     0.13300
C653        C  0.29876781  0.59654972  0.92438592     0.02600
N654        N  0.28931320  0.65169013  0.92976583    -0.81100
H655        H  0.32000798  0.67434312  0.96493502     0.18100
C656        C  0.27320182  0.59346501  0.93255046    -0.25900
C657        C  0.25683972  0.57552179  0.92040647     0.36100
C658        C  0.26656435  0.55996496  0.90001730    -0.19900
C659        C  0.29183634  0.56403482  0.89107010    -0.25200
C660        C  0.30804577  0.58226278  0.90306601     0.27500
H661        H  0.26621070  0.60466901  0.94892195     0.13300
N662        N  0.23054625  0.57294417  0.92886463    -0.82500
H663        H  0.29926007  0.55242327  0.87519525     0.18100
N664        N  0.33399929  0.58604245  0.89406405    -0.81100
H665        H  0.22670850  0.58556463  0.94430821     0.33700
H666        H  0.21870557  0.57880835  0.91351657     0.38200
H667        H  0.33787062  0.57391046  0.87824936     0.33700
H668        H  0.33540970  0.60513048  0.88728731     0.30400
H669        H  0.28749651  0.67125057  0.93496466     0.33700
H670        H  0.29401861  0.65130923  0.91004474     0.30400
H671        H  0.36632244  0.60271907  0.00432798     0.38300
H672        H  0.37448601  0.58471762  0.97851502     0.33700
C673        C  0.27490271  0.45091753  0.90206552    -0.20000
C674        C  0.28058025  0.45318120  0.92877388     0.36200
C675        C  0.29627322  0.43453827  0.94064301    -0.26000
C676        C  0.30670966  0.41390278  0.92638190     0.02600
C677        C  0.30163739  0.41185412  0.89958519     0.27500
C678        C  0.28578993  0.43053831  0.88758568    -0.25100
N679        N  0.27056902  0.47455384  0.94370034    -0.82500
H680        H  0.30038594  0.43601980  0.96122243     0.13300
C681        C  0.32285264  0.39480232  0.94031582     0.02600
N682        N  0.31249109  0.39083267  0.88481400    -0.81100
H683        H  0.28143974  0.42887608  0.86707753     0.18100
C684        C  0.31379745  0.36940296  0.94380193    -0.25900
C685        C  0.32672193  0.35200163  0.96034942     0.36100
C686        C  0.34899063  0.36048251  0.97391519    -0.19900
C687        C  0.35864303  0.38555778  0.96915971    -0.25200
C688        C  0.34583107  0.40274236  0.95249430     0.27500
H689        H  0.29612360  0.36345814  0.93424671     0.13300
N690        N  0.31701779  0.32605036  0.96368412    -0.82500
H691        H  0.37588604  0.39215265  0.97905621     0.18100
N692        N  0.35562346  0.42854795  0.94837308    -0.81100
H693        H  0.30016933  0.32329463  0.95285673     0.33700
H694        H  0.33073218  0.31328987  0.95601445     0.38200
H695        H  0.37260053  0.43148798  0.95894175     0.33700
H696        H  0.36052603  0.43010426  0.92876377     0.30400
H697        H  0.30680745  0.39208304  0.86538779     0.33700
H698        H  0.33254022  0.39300334  0.88511002     0.30400
H699        H  0.27871117  0.49161136  0.93635140     0.38300
H700        H  0.27643253  0.47322340  0.96307470     0.33700
C701        C  0.48273823  0.80471734  0.17737797    -0.20000
C702        C  0.48031730  0.81174290  0.15097014     0.36200
C703        C  0.46468596  0.79669615  0.13455020    -0.26000
C704        C  0.45147930  0.77484844  0.14387433     0.02600
C705        C  0.45322435  0.76827915  0.17035154     0.27500
C706        C  0.46891789  0.78320890  0.18679040    -0.25100
N707        N  0.49438662  0.83345966  0.14062952    -0.82500
H708        H  0.46353587  0.80146365  0.11410681     0.13300
C709        C  0.43710393  0.75827899  0.12531243     0.02600
N710        N  0.43922129  0.74635612  0.18035007    -0.81100
H711        H  0.47052750  0.77785474  0.20705424     0.18100
C712        C  0.44342976  0.73184047  0.12334740    -0.25900
C713        C  0.43120061  0.71569214  0.10515431     0.36100
C714        C  0.41274145  0.72645036  0.08811410    -0.19900
C715        C  0.40610668  0.75280253  0.09041532    -0.25200
C716        C  0.41802938  0.76881823  0.10891333     0.27500
H717        H  0.45818685  0.72384016  0.13590989     0.13300
N718        N  0.43732311  0.68845775  0.10408905    -0.82500
H719        H  0.39183771  0.76105791  0.07745455     0.18100
N720        N  0.41096555  0.79575134  0.11105323    -0.81100
H721        H  0.45141883  0.68379084  0.11783535     0.33700
H722        H  0.42072375  0.67819721  0.10933080     0.38200
H723        H  0.39678787  0.80048366  0.09741508     0.33700
H724        H  0.40272246  0.79848643  0.12935777     0.30400
H725        H  0.44275629  0.74403062  0.20018985     0.33700
H726        H  0.41955812  0.75038658  0.17839248     0.30400
H727        H  0.51398003  0.82871801  0.14120431     0.38300
H728        H  0.48978492  0.83636535  0.12108275     0.33700
C729        C  0.47965730  0.87312248  0.26896731    -0.20000
C730        C  0.46504325  0.85978091  0.28795733     0.36200
C731        C  0.44714005  0.87368497  0.30298254    -0.26000
C732        C  0.44412444  0.90048609  0.29978554     0.02600
C733        C  0.45870001  0.91387678  0.28116810     0.27500
C734        C  0.47625219  0.90006890  0.26588377    -0.25100
N735        N  0.46815342  0.83230936  0.29185558    -0.82500
H736        H  0.43574974  0.86372480  0.31751407     0.13300
C737        C  0.42577642  0.91468016  0.31617150     0.02600
N738        N  0.45569712  0.94148807  0.27806305    -0.81100
H739        H  0.48750864  0.91055973  0.25163406     0.18100
C740        C  0.43518161  0.92881277  0.33734666    -0.25900
C741        C  0.41879116  0.94477485  0.35197277     0.36100
C742        C  0.39249753  0.94681574  0.34479378    -0.19900
C743        C  0.38308438  0.93182757  0.32399138    -0.25200
C744        C  0.39952984  0.91579084  0.30955336     0.27500
H745        H  0.45551770  0.92773266  0.34210633     0.13300
N746        N  0.42905438  0.95960170  0.37328811    -0.82500
H747        H  0.36293789  0.93308691  0.31855171     0.18100
N748        N  0.38987861  0.90106401  0.28788104    -0.81100
H749        H  0.44902971  0.95718173  0.37465000     0.33700
H750        H  0.42136510  0.95184427  0.39034380     0.38200
H751        H  0.37002879  0.90388613  0.28572596     0.33700
H752        H  0.39851723  0.90835990  0.27107821     0.30400
H753        H  0.46816409  0.94848737  0.26375088     0.33700
H754        H  0.43696027  0.94490617  0.27139723     0.30400
H755        H  0.48620731  0.82945925  0.30043358     0.38300
H756        H  0.45463077  0.82541392  0.30521388     0.33700
C757        C  0.83769618  0.15002678  0.47925802    -0.20000
C758        C  0.81616566  0.15859730  0.46475618     0.36200
C759        C  0.80255571  0.14070528  0.44939536    -0.26000
C760        C  0.81023887  0.11466067  0.44800289     0.02600
C761        C  0.83269431  0.10645154  0.46098686     0.27500
C762        C  0.84632354  0.12429156  0.47638357    -0.25100
N763        N  0.80796729  0.18525717  0.46595086    -0.82500
H764        H  0.78545160  0.14686708  0.43898719     0.13300
C765        C  0.79325633  0.09570291  0.43493460     0.02600
N766        N  0.84094432  0.07982587  0.45928686    -0.81100
H767        H  0.86297101  0.11766989  0.48723385     0.18100
C768        C  0.80185019  0.08275742  0.41266818    -0.25900
C769        C  0.78661747  0.06355586  0.40074633     0.36100
C770        C  0.76205186  0.05758507  0.41123269    -0.19900
C771        C  0.75351479  0.07091380  0.43342325    -0.25200
C772        C  0.76894049  0.08975370  0.44548034     0.27500
H773        H  0.82070824  0.08736577  0.40488728     0.13300
N774        N  0.79630402  0.04984299  0.37846104    -0.82500
H775        H  0.73479968  0.06646009  0.44160706     0.18100
N776        N  0.76022926  0.10262277  0.46866376    -0.81100
H777        H  0.81427728  0.05716672  0.37291351     0.33700
H778        H  0.79938611  0.03055255  0.38400421     0.38200
H779        H  0.74184019  0.09613816  0.47384609     0.33700
H780        H  0.77261511  0.09726347  0.48376145     0.30400
H781        H  0.85790280  0.07699573  0.46990926     0.33700
H782        H  0.82679220  0.06832957  0.46802546     0.30400
H783        H  0.82270189  0.19660058  0.45800942     0.38300
H784        H  0.79168200  0.18820005  0.45434103     0.33700
C785        C  0.58540863  0.87381279  0.27214283    -0.20000
C786        C  0.59303098  0.86245565  0.29604544     0.36200
C787        C  0.60920915  0.87643293  0.31290036    -0.26000
C788        C  0.61823456  0.90107930  0.30617614     0.02600
C789        C  0.61091613  0.91241057  0.28248364     0.27500
C790        C  0.59456379  0.89869523  0.26570358    -0.25100
N791        N  0.58442833  0.83690413  0.30324446    -0.82500
H792        H  0.61526520  0.86790611  0.33113229     0.13300
C793        C  0.63665180  0.91446743  0.32328707     0.02600
N794        N  0.62032489  0.93775830  0.27556064    -0.81100
H795        H  0.58889186  0.90760764  0.24754488     0.18100
C796        C  0.66269366  0.91427455  0.31641161    -0.25900
C797        C  0.68059399  0.92972807  0.32970376     0.36100
C798        C  0.67210011  0.94561479  0.35045252    -0.19900
C799        C  0.64621486  0.94426206  0.35845948    -0.25200
C800        C  0.62829341  0.92893703  0.34486469     0.27500
H801        H  0.66886254  0.90277669  0.29990258     0.13300
N802        N  0.70723079  0.92938823  0.32200293    -0.82500
H803        H  0.63965715  0.95620441  0.37448170     0.18100
N804        N  0.60160125  0.92854103  0.35235616    -0.81100
H805        H  0.71071730  0.91391794  0.30930026     0.33700
H806        H  0.71062469  0.94623989  0.31124590     0.38200
H807        H  0.59866700  0.94014938  0.36876686     0.33700
H808        H  0.59092369  0.93692423  0.33732997     0.30400
H809        H  0.61337140  0.94324217  0.25732595     0.33700
H810        H  0.61280817  0.95105961  0.28891917     0.30400
H811        H  0.59335975  0.82366749  0.29073955     0.38300
H812        H  0.59071504  0.83219832  0.32194317     0.33700
C813        C  0.66719048  0.05185395  0.34986182    -0.20000
C814        C  0.64120789  0.05265713  0.35823946     0.36200
C815        C  0.62386050  0.06953491  0.34592870    -0.26000
C816        C  0.63171830  0.08499226  0.32505966     0.02600
C817        C  0.65746493  0.08404397  0.31645996     0.27500
C818        C  0.67501761  0.06762068  0.32909798    -0.25100
N819        N  0.63227843  0.03579379  0.37856960    -0.82500
H820        H  0.60390782  0.07017308  0.35213511     0.13300
C821        C  0.61235555  0.10070597  0.31114101     0.02600
N822        N  0.66548894  0.09935474  0.29459195    -0.81100
H823        H  0.69483511  0.06691247  0.32250224     0.18100
C824        C  0.61480374  0.12784103  0.31057443    -0.25900
C825        C  0.59761183  0.14316160  0.29606102     0.36100
C826        C  0.57795477  0.13083691  0.28158604    -0.19900
C827        C  0.57513309  0.10373704  0.28293509    -0.25200
C828        C  0.59212720  0.08853127  0.29754253     0.27500
H829        H  0.63037482  0.13699154  0.32124867     0.13300
N830        N  0.60081722  0.17088491  0.29506854    -0.82500
H831        H  0.55983387  0.09429590  0.27210631     0.18100
N832        N  0.58935294  0.06072551  0.29810436    -0.81100
H833        H  0.61717986  0.17653268  0.30552790     0.33700
H834        H  0.58508172  0.17922425  0.30461296     0.38200
H835        H  0.57333315  0.05488674  0.28722119     0.33700
H836        H  0.60553977  0.05269035  0.28906297     0.30400
H837        H  0.68508722  0.09648698  0.29078382     0.33700
H838        H  0.65546848  0.09259707  0.27831104     0.30400
H839        H  0.63353075  0.01669917  0.37169877     0.38300
H840        H  0.61279395  0.03915826  0.38253695     0.33700
C841        C  0.22253206  0.15068274  0.58467993    -0.20000
C842        C  0.20976892  0.13050303  0.59824121     0.36200
C843        C  0.22382479  0.11518910  0.61575399    -0.26000
C844        C  0.25019867  0.11939851  0.61959612     0.02600
C845        C  0.26266066  0.14016580  0.60718210     0.27500
C846        C  0.24870251  0.15566183  0.58991311    -0.25100
N847        N  0.18286876  0.12522243  0.59398560    -0.82500
H848        H  0.21452137  0.09903584  0.62544319     0.13300
C849        C  0.26525024  0.10006028  0.63406017     0.02600
N850        N  0.28963185  0.14489543  0.61168385    -0.81100
H851        H  0.25862824  0.17122655  0.57992370     0.18100
C852        C  0.28311666  0.08507364  0.62031432    -0.25900
C853        C  0.29753455  0.06580215  0.63271960     0.36100
C854        C  0.29426573  0.06185583  0.65968204    -0.19900
C855        C  0.27607323  0.07679181  0.67335667    -0.25200
C856        C  0.26149149  0.09593885  0.66073825     0.27500
H857        H  0.28543535  0.08817270  0.59964210     0.13300
N858        N  0.31504628  0.05000261  0.61789214    -0.82500
H859        H  0.27344325  0.07376616  0.69398577     0.18100
N860        N  0.24305830  0.11130588  0.67481996    -0.81100
H861        H  0.31549141  0.05594380  0.59850106     0.33700
H862        H  0.30780256  0.03104027  0.61788111     0.38200
H863        H  0.24256688  0.10574111  0.69431639     0.33700
H864        H  0.24942052  0.13058387  0.67445633     0.30400
H865        H  0.29599524  0.16078903  0.60081920     0.33700
H866        H  0.29181316  0.14998246  0.63121545     0.30400
H867        H  0.18113201  0.11678477  0.57560057     0.38300
H868        H  0.17621059  0.11128739  0.60712098     0.33700
C869        C  0.22636541  0.85742973  0.58998665    -0.20000
C870        C  0.25135238  0.85226927  0.59996788     0.36200
C871        C  0.26296324  0.87035290  0.61674346    -0.26000
C872        C  0.25046670  0.89353675  0.62319571     0.02600
C873        C  0.22555696  0.89858392  0.61380692     0.27500
C874        C  0.21365076  0.88041275  0.59745578    -0.25100
N875        N  0.26518462  0.82917877  0.59266818    -0.82500
H876        H  0.28232912  0.86695362  0.62390517     0.13300
C877        C  0.26489005  0.91381315  0.63710939     0.02600
N878        N  0.21285033  0.92254613  0.62032579    -0.81100
H879        H  0.19454528  0.88459662  0.59005452     0.18100
C880        C  0.27634480  0.93352514  0.62249091    -0.25900
C881        C  0.29082993  0.95310639  0.63447566     0.36100
C882        C  0.29351329  0.95303795  0.66178264    -0.19900
C883        C  0.28151341  0.93349808  0.67646705    -0.25200
C884        C  0.26729026  0.91368223  0.66428760     0.27500
H885        H  0.27415585  0.93341597  0.60156527     0.13300
N886        N  0.30209319  0.97341991  0.61905181    -0.82500
H887        H  0.28361670  0.93347067  0.69739374     0.18100
N888        N  0.25546022  0.89338343  0.67924801    -0.81100
H889        H  0.29589573  0.97203853  0.59978347     0.33700
H890        H  0.32199632  0.97029220  0.61861741     0.38200
H891        H  0.25924252  0.89602862  0.69901287     0.33700
H892        H  0.23549925  0.89501432  0.67692330     0.30400
H893        H  0.19470731  0.92349558  0.61152698     0.33700
H894        H  0.20968857  0.92255963  0.64036458     0.30400
H895        H  0.27025614  0.83109873  0.57312771     0.38300
H896        H  0.28253107  0.82780591  0.60293097     0.33700
C897        C  0.22627543  0.85440204  0.48304022    -0.20000
C898        C  0.21546076  0.87773347  0.47326008     0.36200
C899        C  0.23060101  0.89412271  0.45766488    -0.26000
C900        C  0.25611763  0.88769887  0.45153459     0.02600
C901        C  0.26662907  0.86412646  0.46039886     0.27500
C902        C  0.25162859  0.84772475  0.47598432    -0.25100
N903        N  0.18951444  0.88515925  0.47968093    -0.82500
H904        H  0.22273073  0.91237987  0.45082255     0.13300
C905        C  0.27229684  0.90672922  0.43751983     0.02600
N906        N  0.29270940  0.85723485  0.45391809    -0.81100
H907        H  0.26012275  0.82991201  0.48318667     0.18100
C908        C  0.29358733  0.91741802  0.45035437    -0.25900
C909        C  0.30909913  0.93626156  0.43847912     0.36100
C910        C  0.30334175  0.94440031  0.41281759    -0.19900
C911        C  0.28199731  0.93340155  0.39994643    -0.25200
C912        C  0.26641531  0.91465065  0.41206804     0.27500
H913        H  0.29777732  0.91136659  0.47005219     0.13300
N914        N  0.33042619  0.94721049  0.45262954    -0.82500
H915        H  0.27740077  0.93942167  0.38034842     0.18100
N916        N  0.24472962  0.90353046  0.39866256    -0.81100
H917        H  0.33278328  0.93791690  0.47050878     0.33700
H918        H  0.32574006  0.96650816  0.45689026     0.38200
H919        H  0.24296833  0.91148470  0.38009155     0.33700
H920        H  0.24844679  0.88371378  0.39616264     0.30400
H921        H  0.29766907  0.83937926  0.46218628     0.33700
H922        H  0.29358393  0.85474943  0.43379950     0.30400
H923        H  0.17713198  0.87186903  0.47068675     0.38300
H924        H  0.18509109  0.90336683  0.47187780     0.33700
C925        C  0.15551484  0.76416064  0.48644380    -0.20000
C926        C  0.16844253  0.74441242  0.47236977     0.36200
C927        C  0.15456107  0.72928664  0.45446084    -0.26000
C928        C  0.12808431  0.73304735  0.45068424     0.02600
C929        C  0.11493877  0.75196182  0.46538495     0.27500
C930        C  0.12879388  0.76734820  0.48303368    -0.25100
N931        N  0.19559419  0.73997304  0.47585449    -0.82500
H932        H  0.16440427  0.71438922  0.44336842     0.13300
C933        C  0.11443749  0.71748573  0.43078671     0.02600
N934        N  0.08765415  0.75571496  0.46204032    -0.81100
H935        H  0.11861387  0.78203774  0.49408079     0.18100
C936        C  0.09362246  0.70183911  0.43824379    -0.25900
C937        C  0.07908430  0.68824254  0.41970613     0.36100
C938        C  0.08592944  0.68996155  0.39323417    -0.19900
C939        C  0.10706873  0.70519946  0.38582343    -0.25200
C940        C  0.12145182  0.71900637  0.40438284     0.27500
H941        H  0.08837485  0.70074179  0.45856437     0.13300
N942        N  0.05683620  0.67352867  0.42754947    -0.82500
H943        H  0.11217687  0.70652558  0.36548164     0.18100
N944        N  0.14281930  0.73495328  0.39652049    -0.81100
H945        H  0.05456667  0.67420915  0.44769451     0.33700
H946        H  0.04058401  0.68256299  0.41960817     0.38200
H947        H  0.14554886  0.73378984  0.37645846     0.33700
H948        H  0.13806776  0.75426677  0.40065803     0.30400
H949        H  0.08086917  0.77020744  0.47453779     0.33700
H950        H  0.08460722  0.76241014  0.44314771     0.30400
H951        H  0.19809961  0.73186622  0.49427260     0.38300
H952        H  0.20228027  0.72605720  0.46267187     0.33700
C953        C  0.09714955  0.62405384  0.30120584    -0.20000
C954        C  0.11407062  0.63833831  0.28507704     0.36200
C955        C  0.13303228  0.62506068  0.27082981    -0.26000
C956        C  0.13558438  0.59809032  0.27284238     0.02600
C957        C  0.11928507  0.58389171  0.28935506     0.27500
C958        C  0.10019733  0.59701502  0.30336193    -0.25100
N959        N  0.11220757  0.66615891  0.28343225    -0.82500
H960        H  0.14595991  0.63571447  0.25821657     0.13300
C961        C  0.15530959  0.58459587  0.25748291     0.02600
N962        N  0.12235881  0.55623208  0.29193610    -0.81100
H963        H  0.08739518  0.58595532  0.31574381     0.18100
C964        C  0.17955333  0.58015718  0.26851115    -0.25900
C965        C  0.19779631  0.56454199  0.25581391     0.36100
C966        C  0.19122487  0.55280980  0.23182664    -0.19900
C967        C  0.16738156  0.55871265  0.22021612    -0.25200
C968        C  0.14930040  0.57444596  0.23288294     0.27500
H969        H  0.18395630  0.58840317  0.28737056     0.13300
N970        N  0.22265033  0.56024845  0.26742672    -0.82500
H971        H  0.16230338  0.55014639  0.20168708     0.18100
N972        N  0.12469170  0.57978011  0.22114115    -0.81100
H973        H  0.22405852  0.56990145  0.28524480     0.33700
H974        H  0.23643613  0.56864999  0.25525115     0.38200
H975        H  0.12347294  0.57112274  0.20280744     0.33700
H976        H  0.11045618  0.57107754  0.23253248     0.30400
H977        H  0.10912501  0.54877762  0.30527983     0.33700
H978        H  0.11794142  0.54772251  0.27404398     0.30400
H979        H  0.11692656  0.67371581  0.30167962     0.38300
H980        H  0.12586645  0.67349880  0.27045347     0.33700
C981        C  0.88942958  0.55937545  0.22231568    -0.20000
C982        C  0.88728212  0.56562040  0.24901068     0.36200
C983        C  0.90647503  0.58092425  0.26083086    -0.26000
C984        C  0.92754588  0.59016731  0.24660603     0.02600
C985        C  0.92934426  0.58482106  0.21994027     0.27500
C986        C  0.91024891  0.56957204  0.20803452    -0.25100
N987        N  0.86639691  0.55557148  0.26432304    -0.82500
H988        H  0.90544625  0.58506853  0.28143247     0.13300
C989        C  0.94883396  0.60316507  0.26052289     0.02600
N990        N  0.95104299  0.59413874  0.20531777    -0.81100
H991        H  0.91205340  0.56508971  0.18757044     0.18100
C992        C  0.96944655  0.58798106  0.26927603    -0.25900
C993        C  0.98899593  0.59876489  0.28474524     0.36100
C994        C  0.98799208  0.62545199  0.29120057    -0.19900
C995        C  0.96796086  0.64092223  0.28128269    -0.25200
C996        C  0.94817955  0.62993018  0.26611549     0.27500
H997        H  0.96985206  0.56744298  0.26459342     0.13300
N998        N  0.01003400  0.58279496  0.29347855    -0.82500
H999        H  0.96726806  0.66140481  0.28615289     0.18100
N1000       N  0.92713130  0.64558923  0.25693267    -0.81100
H1001       H  0.00913486  0.56442126  0.28483001     0.33700
H1002       H  0.00759961  0.57967975  0.31335343     0.38200
H1003       H  0.92937490  0.66485613  0.26300848     0.33700
H1004       H  0.92793377  0.64575824  0.23666857     0.30400
H1005       H  0.94973494  0.58812229  0.18597105     0.33700
H1006       H  0.95016440  0.61442929  0.20518153     0.30400
H1007       H  0.84951847  0.56472137  0.25804220     0.38300
H1008       H  0.86867910  0.56068679  0.28383776     0.33700
C1009       C  0.97379979  0.38518414  0.30556883    -0.20000
C1010       C  0.96845504  0.41173723  0.30983696     0.36200
C1011       C  0.95014576  0.42426807  0.29437632    -0.26000
C1012       C  0.93671376  0.41069668  0.27501921     0.02600
C1013       C  0.94146930  0.38404965  0.27110092     0.27500
C1014       C  0.96012581  0.37160842  0.28628175    -0.25100
N1015       N  0.98184392  0.42623903  0.32941605    -0.82500
H1016       H  0.94665314  0.44483630  0.29726888     0.13300
C1017       C  0.91817775  0.42485226  0.25860206     0.02600
N1018       N  0.92729995  0.36977896  0.25176248    -0.81100
H1019       H  0.96390844  0.35115820  0.28304133     0.18100
C1020       C  0.92146730  0.42465776  0.23159524    -0.25900
C1021       C  0.90490484  0.43874616  0.21536989     0.36100
C1022       C  0.88513218  0.45387690  0.22659766    -0.19900
C1023       C  0.88152839  0.45345753  0.25362653    -0.25200
C1024       C  0.89777841  0.43900773  0.26973866     0.27500
H1025       H  0.93724980  0.41372092  0.22319587     0.13300
N1026       N  0.90823302  0.43784143  0.18768928    -0.82500
H1027       H  0.86636409  0.46497943  0.26238097     0.18100
N1028       N  0.89385834  0.43885500  0.29736716    -0.81100
H1029       H  0.92390207  0.42605263  0.18274974     0.33700
H1030       H  0.89185440  0.42895272  0.17982314     0.38200
H1031       H  0.87815453  0.45053621  0.30244052     0.33700
H1032       H  0.88910254  0.41987079  0.30274023     0.30400
H1033       H  0.93326585  0.35038112  0.25122523     0.33700
H1034       H  0.90792619  0.36968131  0.25734662     0.30400
H1035       H  0.99129370  0.44176184  0.32045114     0.38300
H1036       H  0.96817656  0.43388875  0.34222491     0.33700
C1037       C  0.80117491  0.45144845  0.15212775    -0.20000
C1038       C  0.79379748  0.45419361  0.12594270     0.36200
C1039       C  0.78069217  0.43377853  0.11354749    -0.26000
C1040       C  0.77485274  0.41074147  0.12683911     0.02600
C1041       C  0.78212794  0.40805301  0.15308072     0.27500
C1042       C  0.79510055  0.42858255  0.16555771    -0.25100
N1043       N  0.79950340  0.47777864  0.11215791    -0.82500
H1044       H  0.77503801  0.43575595  0.09339305     0.13300
C1045       C  0.76062798  0.38989123  0.11302351     0.02600
N1046       N  0.77633160  0.38451268  0.16686863    -0.81100
H1047       H  0.80101844  0.42654118  0.18562776     0.18100
C1048       C  0.77211589  0.36546141  0.10949463    -0.25900
C1049       C  0.75947059  0.34563940  0.09553593     0.36100
C1050       C  0.73488076  0.35058436  0.08462191    -0.19900
C1051       C  0.72334328  0.37499713  0.08876521    -0.25200
C1052       C  0.73587764  0.39458830  0.10286030     0.27500
H1053       H  0.79116757  0.36199224  0.11741806     0.13300
N1054       N  0.77169229  0.32079048  0.09222802    -0.82500
H1055       H  0.70450068  0.37908151  0.08065964     0.18100
N1056       N  0.72363413  0.41935240  0.10680590    -0.81100
H1057       H  0.79000022  0.32075229  0.10075201     0.33700
H1058       H  0.76073356  0.30712849  0.10238840     0.38200
H1059       H  0.70552823  0.41979562  0.09786224     0.33700
H1060       H  0.72042350  0.42150830  0.12671491     0.30400
H1061       H  0.78321226  0.38555508  0.18592514     0.33700
H1062       H  0.75627408  0.38293697  0.16806094     0.30400
H1063       H  0.78927541  0.49283238  0.12109651     0.38300
H1064       H  0.79278084  0.47666313  0.09304598     0.33700
C1065       C  0.58818743  0.19988081  0.19095826    -0.20000
C1066       C  0.59997166  0.22385575  0.19747537     0.36200
C1067       C  0.61610468  0.23615039  0.17928715    -0.26000
C1068       C  0.62099410  0.22479349  0.15505321     0.02600
C1069       C  0.61023958  0.20046253  0.14894698     0.27500
C1070       C  0.59412485  0.18817481  0.16699412    -0.25100
N1071       N  0.59531264  0.23582143  0.22225522    -0.82500
H1072       H  0.62460918  0.25485752  0.18380584     0.13300
C1073       C  0.63583545  0.23931524  0.13535258     0.02600
N1074       N  0.61512294  0.18873046  0.12408526    -0.81100
H1075       H  0.58531708  0.16980968  0.16176491     0.18100
C1076       C  0.66085087  0.23134250  0.12895177    -0.25900
C1077       C  0.67485458  0.24384181  0.10918401     0.36100
C1078       C  0.66324753  0.26449853  0.09522674    -0.19900
C1079       C  0.63821099  0.27250843  0.10209714    -0.25200
C1080       C  0.62439522  0.26008141  0.12189982     0.27500
H1081       H  0.66940952  0.21525770  0.13942249     0.13300
N1082       N  0.70065500  0.23551043  0.10331435    -0.82500
H1083       H  0.62908129  0.28828636  0.09167353     0.18100
N1084       N  0.59858275  0.26814499  0.12814121    -0.81100
H1085       H  0.70581652  0.21956696  0.11475387     0.33700
H1086       H  0.71311462  0.25061487  0.10854574     0.38200
H1087       H  0.59300476  0.28383504  0.11656709     0.33700
H1088       H  0.58618339  0.25278517  0.12351895     0.30400
H1089       H  0.60587807  0.17072300  0.12265470     0.33700
H1090       H  0.60687736  0.20064840  0.10991708     0.30400
H1091       H  0.60321439  0.22368838  0.23644881     0.38300
H1092       H  0.60507068  0.25354765  0.22368092     0.33700
C1093       C  0.38072803  0.05982140  0.73349011    -0.20000
C1094       C  0.37222934  0.08079812  0.74898085     0.36200
C1095       C  0.39059269  0.09607268  0.76213963    -0.26000
C1096       C  0.41694593  0.09035884  0.76030768     0.02600
C1097       C  0.42539314  0.06948137  0.74488392     0.27500
C1098       C  0.40721139  0.05461490  0.73139053    -0.25100
N1099       N  0.34524247  0.08685183  0.75087314    -0.82500
H1100       H  0.38438131  0.11207673  0.77430822     0.13300
C1101       C  0.43565798  0.10471928  0.77629145     0.02600
N1102       N  0.45233152  0.06288930  0.74383128    -0.81100
H1103       H  0.41371725  0.03830496  0.71978047     0.18100
C1104       C  0.44135901  0.09514274  0.80098037    -0.25900
C1105       C  0.46147649  0.10576376  0.81573838     0.36100
C1106       C  0.47668530  0.12601330  0.80510085    -0.19900
C1107       C  0.46992874  0.13645398  0.78081567    -0.25200
C1108       C  0.44947328  0.12596801  0.76628184     0.27500
H1109       H  0.43034385  0.07891825  0.80850891     0.13300
N1110       N  0.46652311  0.09588022  0.84133865    -0.82500
H1111       H  0.48106727  0.15232656  0.77279141     0.18100
N1112       N  0.44278324  0.13661759  0.74139046    -0.81100
H1113       H  0.45396721  0.08063401  0.84581409     0.33700
H1114       H  0.46249127  0.11079868  0.85452527     0.38200
H1115       H  0.45459804  0.15247904  0.73702454     0.33700
H1116       H  0.44650146  0.12248733  0.72730083     0.30400
H1117       H  0.45523977  0.04648864  0.73219594     0.33700
H1118       H  0.46203748  0.07820012  0.73481480     0.30400
H1119       H  0.33644699  0.07201245  0.76147787     0.38300
H1120       H  0.34254055  0.10388091  0.76162844     0.33700
C1121       C  0.59513082  0.18336431  0.88755243    -0.20000
C1122       C  0.61382412  0.20163412  0.87942693     0.36200
C1123       C  0.62921133  0.21414140  0.89818776    -0.26000
C1124       C  0.62579094  0.20915661  0.92468419     0.02600
C1125       C  0.60755046  0.19071710  0.93279488     0.27500
C1126       C  0.59265650  0.17776368  0.91415326    -0.25100
N1127       N  0.61716889  0.20748244  0.85237427    -0.82500
H1128       H  0.64319902  0.22860180  0.89225740     0.13300
C1129       C  0.63921384  0.22540733  0.94399316     0.02600
N1130       N  0.60345093  0.18613813  0.96000747    -0.81100
H1131       H  0.57816368  0.16405515  0.92060587     0.18100
C1132       C  0.62685114  0.24783080  0.95285059    -0.25900
C1133       C  0.63824052  0.26379540  0.97171969     0.36100
C1134       C  0.66246336  0.25671430  0.98246173    -0.19900
C1135       C  0.67479586  0.23409942  0.97331937    -0.25200
C1136       C  0.66339736  0.21840207  0.95411343     0.27500
H1137       H  0.60820962  0.25295237  0.94480832     0.13300
N1138       N  0.62518952  0.28709034  0.97981788    -0.82500
H1139       H  0.69339986  0.22860492  0.98114465     0.18100
N1140       N  0.67630019  0.19554114  0.94470064    -0.81100
H1141       H  0.60697937  0.28839898  0.97118051     0.33700
H1142       H  0.63578910  0.30285023  0.97276491     0.38200
H1143       H  0.69412971  0.19329327  0.95390421     0.33700
H1144       H  0.66516566  0.17942480  0.94985671     0.30400
H1145       H  0.58879824  0.17245327  0.96277480     0.33700
H1146       H  0.62029612  0.17796457  0.96755010     0.30400
H1147       H  0.60117581  0.21828925  0.84641276     0.38300
H1148       H  0.63314437  0.21958981  0.84972740     0.33700
C1149       C  0.49303535  0.19586104  0.88916458    -0.20000
C1150       C  0.48330452  0.18666414  0.91311491     0.36200
C1151       C  0.46827371  0.20325222  0.92843972    -0.26000
C1152       C  0.46339078  0.22879728  0.92067497     0.02600
C1153       C  0.47308451  0.23814377  0.89705853     0.27500
C1154       C  0.48772533  0.22153878  0.88143962    -0.25100
N1155       N  0.48891298  0.16082281  0.92206390    -0.82500
H1156       H  0.46086275  0.19651303  0.94690411     0.13300
C1157       C  0.44885098  0.24582884  0.93812745     0.02600
N1158       N  0.46808423  0.26446241  0.88917921    -0.81100
H1159       H  0.49514986  0.22884320  0.86321681     0.18100
C1160       C  0.46176238  0.26625227  0.95045415    -0.25900
C1161       C  0.44914628  0.28177656  0.96879357     0.36100
C1162       C  0.42281319  0.27695914  0.97429440    -0.19900
C1163       C  0.40991982  0.25664601  0.96143070    -0.25200
C1164       C  0.42274368  0.24097654  0.94340666     0.27500
H1165       H  0.48199590  0.26950602  0.94630992     0.13300
N1166       N  0.46319929  0.30184256  0.98217455    -0.82500
H1167       H  0.38977722  0.25285899  0.96549144     0.18100
N1168       N  0.40950837  0.22005345  0.93052489    -0.81100
H1169       H  0.48201792  0.30327974  0.97504450     0.33700
H1170       H  0.46486690  0.29620021  0.00158777     0.38200
H1171       H  0.39036229  0.21893745  0.93676843     0.33700
H1172       H  0.40894302  0.22440031  0.91072297     0.30400
H1173       H  0.47682252  0.26836905  0.87133338     0.33700
H1174       H  0.44820442  0.26629478  0.88631650     0.30400
H1175       H  0.50856293  0.16017241  0.92659149     0.38300
H1176       H  0.47912909  0.15691445  0.93935502     0.33700
C1177       C  0.90514876  0.76257556  0.46989177    -0.20000
C1178       C  0.89706950  0.73720930  0.46292133     0.36200
C1179       C  0.91203763  0.72271195  0.44542062    -0.26000
C1180       C  0.93441023  0.73323304  0.43448537     0.02600
C1181       C  0.94201897  0.75871934  0.44069871     0.27500
C1182       C  0.92725400  0.77316526  0.45822347    -0.25100
N1183       N  0.87422385  0.72596605  0.47400266    -0.82500
H1184       H  0.90630157  0.70312300  0.44024709     0.13300
C1185       C  0.95001332  0.71741029  0.41660863     0.02600
N1186       N  0.96503748  0.76958638  0.42956889    -0.81100
H1187       H  0.93346330  0.79264052  0.46323552     0.18100
C1188       C  0.95246715  0.72543844  0.39079605    -0.25900
C1189       C  0.96885695  0.71229688  0.37362789     0.36100
C1190       C  0.98297444  0.69061761  0.38260080    -0.19900
C1191       C  0.97971187  0.68206603  0.40828146    -0.25200
C1192       C  0.96356778  0.69547282  0.42550743     0.27500
H1193       H  0.94183102  0.74231376  0.38419946     0.13300
N1194       N  0.97132124  0.72101136  0.34725405    -0.82500
H1195       H  0.99065821  0.66556894  0.41528762     0.18100
N1196       N  0.96149044  0.68745704  0.45214812    -0.81100
H1197       H  0.95991169  0.73744041  0.34400616     0.33700
H1198       H  0.96405801  0.70633259  0.33524719     0.38200
H1199       H  0.97274102  0.67094129  0.45553812     0.33700
H1200       H  0.96920174  0.70228476  0.46367853     0.30400
H1201       H  0.96783766  0.78865698  0.43600537     0.33700
H1202       H  0.98069735  0.75876986  0.43639817     0.30400
H1203       H  0.85842451  0.73618907  0.46661570     0.38300
H1204       H  0.87195118  0.70673348  0.46783460     0.33700
C1205       C  0.84014186  0.85462881  0.47979632    -0.20000
C1206       C  0.84646187  0.88139483  0.48109218     0.36200
C1207       C  0.83216003  0.89923916  0.46638685    -0.26000
C1208       C  0.81212932  0.89090688  0.45021294     0.02600
C1209       C  0.80635694  0.86429966  0.44808927     0.27500
C1210       C  0.82042033  0.84638072  0.46294397    -0.25100
N1211       N  0.86649507  0.89058240  0.49810480    -0.82500
H1212       H  0.83627404  0.91983994  0.46788272     0.13300
C1213       C  0.79587729  0.91053920  0.43743566     0.02600
N1214       N  0.78593862  0.85570691  0.43123879    -0.81100
H1215       H  0.81564026  0.82592004  0.46170131     0.18100
C1216       C  0.80014926  0.91684548  0.41139703    -0.25900
C1217       C  0.78510908  0.93585109  0.39893580     0.36100
C1218       C  0.76504208  0.94830318  0.41288532    -0.19900
C1219       C  0.76106672  0.94178286  0.43908816    -0.25200
C1220       C  0.77628889  0.92307916  0.45147375     0.27500
H1221       H  0.81544694  0.90708149  0.40090687     0.13300
N1222       N  0.79011362  0.94227064  0.37227281    -0.82500
H1223       H  0.74594133  0.95125378  0.45006697     0.18100
N1224       N  0.77202969  0.91674603  0.47830664    -0.81100
H1225       H  0.80453444  0.93029939  0.36465438     0.33700
H1226       H  0.79753585  0.96116112  0.37192068     0.38200
H1227       H  0.75706631  0.92798425  0.48599181     0.33700
H1228       H  0.76591257  0.89741209  0.47914612     0.30400
H1229       H  0.78429433  0.83546844  0.43173149     0.33700
H1230       H  0.76861499  0.86313285  0.43849318     0.30400
H1231       H  0.88409229  0.88444630  0.49035021     0.38300
H1232       H  0.86714048  0.91088910  0.49820811     0.33700
C1233       C  0.90504112  0.75216164  0.57765205    -0.20000
C1234       C  0.93208072  0.74887184  0.57834446     0.36200
C1235       C  0.94301581  0.73301099  0.59745001    -0.26000
C1236       C  0.92755287  0.72028981  0.61566985     0.02600
C1237       C  0.90055730  0.72251962  0.61440207     0.27500
C1238       C  0.88947536  0.73842420  0.59524430    -0.25100
N1239       N  0.94833915  0.76168517  0.55973661    -0.82500
H1240       H  0.96379135  0.73093518  0.59853312     0.13300
C1241       C  0.94053693  0.70606948  0.63672347     0.02600
N1242       N  0.88467113  0.70901958  0.63280719    -0.81100
H1243       H  0.86872197  0.74075942  0.59457617     0.18100
C1244       C  0.94272653  0.71791569  0.66109016    -0.25900
C1245       C  0.95966380  0.70805774  0.67996738     0.36100
C1246       C  0.97437355  0.68556262  0.67429274    -0.19900
C1247       C  0.97065642  0.67287104  0.65032666    -0.25200
C1248       C  0.95397564  0.68298741  0.63147187     0.27500
H1249       H  0.93227538  0.73577040  0.66481671     0.13300
N1250       N  0.96217214  0.72112950  0.70451336    -0.82500
H1251       H  0.98144788  0.65541898  0.64583791     0.18100
N1252       N  0.95124180  0.67048713  0.60664635    -0.81100
H1253       H  0.94849045  0.73596108  0.70616306     0.33700
H1254       H  0.98015122  0.73031432  0.70470166     0.38200
H1255       H  0.96266248  0.65377343  0.60572742     0.33700
H1256       H  0.93208846  0.66435225  0.60496093     0.30400
H1257       H  0.86517506  0.71285381  0.62929918     0.33700
H1258       H  0.88730042  0.68910444  0.62977961     0.30400
H1259       H  0.94393961  0.75404904  0.54145002     0.38300
H1260       H  0.96775985  0.75743111  0.56321336     0.33700
C1261       C  0.08333053  0.69039207  0.67853088    -0.20000
C1262       C  0.09050867  0.68112053  0.65368056     0.36200
C1263       C  0.10779729  0.69571322  0.63860741    -0.26000
C1264       C  0.11785799  0.71929159  0.64776403     0.02600
C1265       C  0.11184977  0.72781017  0.67300431     0.27500
C1266       C  0.09461917  0.71333851  0.68808053    -0.25100
N1267       N  0.07964474  0.65754572  0.64339281    -0.82500
H1268       H  0.11246296  0.68934411  0.61911513     0.13300
C1269       C  0.13245495  0.73619590  0.62985887     0.02600
N1270       N  0.12292121  0.75143399  0.68296856    -0.81100
H1271       H  0.08968172  0.72031400  0.70728887     0.18100
C1272       C  0.12276822  0.76103903  0.62458017    -0.25900
C1273       C  0.13522369  0.77768049  0.60714655     0.36100
C1274       C  0.15757320  0.76891741  0.59405333    -0.19900
C1275       C  0.16744091  0.74408120  0.59969397    -0.25200
C1276       C  0.15515244  0.72767064  0.61756890     0.27500
H1277       H  0.10521799  0.76741012  0.63405579     0.13300
N1278       N  0.12515741  0.80333694  0.60274635    -0.82500
H1279       H  0.18461439  0.73724744  0.58987748     0.18100
N1280       N  0.16551694  0.70240027  0.62323053    -0.81100
H1281       H  0.10819542  0.80630388  0.61338637     0.33700
H1282       H  0.13863287  0.81657294  0.60994903     0.38200
H1283       H  0.18225937  0.69903834  0.61244388     0.33700
H1284       H  0.17098027  0.70230603  0.64276241     0.30400
H1285       H  0.11636861  0.75513075  0.70179501     0.33700
H1286       H  0.14285098  0.74866097  0.68427565     0.30400
H1287       H  0.06004457  0.66092667  0.64003571     0.38300
H1288       H  0.08775027  0.65309980  0.62535322     0.33700
C1289       C  0.17542519  0.55210728  0.83828190    -0.20000
C1290       C  0.14869480  0.55026041  0.84341072     0.36200
C1291       C  0.13165274  0.56743406  0.83106046    -0.26000
C1292       C  0.14075389  0.58620763  0.81373202     0.02600
C1293       C  0.16739896  0.58878849  0.80930164     0.27500
C1294       C  0.18452889  0.57160917  0.82159617    -0.25100
N1295       N  0.13883074  0.53036830  0.86027854    -0.82500
H1296       H  0.11105726  0.56548657  0.83405421     0.13300
C1297       C  0.12187486  0.60026038  0.79764655     0.02600
N1298       N  0.17685658  0.60866660  0.79219880    -0.81100
H1299       H  0.20503929  0.57329403  0.81798110     0.18100
C1300       C  0.11175158  0.62407569  0.80598874    -0.25900
C1301       C  0.09244892  0.63680302  0.79153113     0.36100
C1302       C  0.08348486  0.62540381  0.76813956    -0.19900
C1303       C  0.09407777  0.60159338  0.75996318    -0.25200
C1304       C  0.11305358  0.58892003  0.77447399     0.27500
H1305       H  0.11859289  0.63244069  0.82403834     0.13300
N1306       N  0.08187456  0.66093493  0.80071253    -0.82500
H1307       H  0.08748886  0.59261147  0.74212698     0.18100
N1308       N  0.12304126  0.56420772  0.76610651    -0.81100
H1309       H  0.09124489  0.66693927  0.81766710     0.33700
H1310       H  0.06267543  0.65747700  0.80584274     0.38200
H1311       H  0.11406006  0.55818527  0.74895237     0.33700
H1312       H  0.14255674  0.56668596  0.76170273     0.30400
H1313       H  0.19700143  0.60819107  0.79136670     0.33700
H1314       H  0.17024446  0.60450835  0.77349220     0.30400
H1315       H  0.14234523  0.51242653  0.85141654     0.38300
H1316       H  0.11881706  0.53197666  0.86217595     0.33700
C1317       C  0.84081583  0.84399867  0.58582739    -0.20000
C1318       C  0.84818122  0.87013497  0.59004771     0.36200
C1319       C  0.83381041  0.88543371  0.60723334    -0.26000
C1320       C  0.81215166  0.87532165  0.61985805     0.02600
C1321       C  0.80554064  0.84900171  0.61677401     0.27500
C1322       C  0.81997180  0.83353248  0.59972617    -0.25100
N1323       N  0.86924050  0.88150974  0.57590642    -0.82500
H1324       H  0.83857669  0.90580727  0.60964117     0.13300
C1325       C  0.79504730  0.89351160  0.63360764     0.02600
N1326       N  0.78384936  0.83837946  0.63047912    -0.81100
H1327       H  0.81452908  0.81341130  0.59678171     0.18100
C1328       C  0.77050901  0.89826846  0.62331386    -0.25900
C1329       C  0.75506823  0.91842341  0.63299247     0.36100
C1330       C  0.76446052  0.93395399  0.65365456    -0.19900
C1331       C  0.78867435  0.92824957  0.66460527    -0.25200
C1332       C  0.80406107  0.90818468  0.65474989     0.27500
H1333       H  0.76386005  0.88689371  0.60689372     0.13300
N1334       N  0.73004691  0.92301238  0.62185500    -0.82500
H1335       H  0.79589515  0.93976200  0.68066167     0.18100
N1336       N  0.82897482  0.90285200  0.66577991    -0.81100
H1337       H  0.72540562  0.90846744  0.60844371     0.33700
H1338       H  0.73115527  0.94027014  0.61124574     0.38200
H1339       H  0.83282675  0.91550716  0.68119353     0.33700
H1340       H  0.82835306  0.88412395  0.67359972     0.30400
H1341       H  0.78149304  0.81870691  0.62596392     0.33700
H1342       H  0.78803696  0.83935247  0.65031137     0.30400
H1343       H  0.86377785  0.88242310  0.55638823     0.38300
H1344       H  0.87240775  0.90067991  0.58186637     0.33700
C1345       C  0.58651719  0.11196903  0.79747411    -0.20000
C1346       C  0.59282153  0.08565248  0.80223611     0.36200
C1347       C  0.61083110  0.07320782  0.78618981    -0.26000
C1348       C  0.62258704  0.08638150  0.76555772     0.02600
C1349       C  0.61576302  0.11229774  0.76025688     0.27500
C1350       C  0.59771637  0.12476330  0.77617330    -0.25100
N1351       N  0.58111111  0.07163074  0.82326608    -0.82500
H1352       H  0.61581583  0.05307989  0.78978207     0.13300
C1353       C  0.64240125  0.07284825  0.75001986     0.02600
N1354       N  0.62757920  0.12600408  0.73907402    -0.81100
H1355       H  0.59287312  0.14484011  0.77220021     0.18100
C1356       C  0.63917851  0.07052775  0.72310389    -0.25900
C1357       C  0.65726537  0.05714078  0.70788976     0.36100
C1358       C  0.67865805  0.04524580  0.72009041    -0.19900
C1359       C  0.68215474  0.04834545  0.74697513    -0.25200
C1360       C  0.66434252  0.06211923  0.76202589     0.27500
H1361       H  0.62229462  0.07894123  0.71399953     0.13300
N1362       N  0.65374887  0.05536826  0.68026597    -0.82500
H1363       H  0.69852010  0.03941423  0.75651762     0.18100
N1364       N  0.66828182  0.06505322  0.78951128    -0.81100
H1365       H  0.63679614  0.06478030  0.67458635     0.33700
H1366       H  0.66894482  0.06546163  0.67156119     0.38200
H1367       H  0.68523142  0.05574199  0.79535563     0.33700
H1368       H  0.67084620  0.08485098  0.79329929     0.30400
H1369       H  0.62026404  0.14487976  0.73767583     0.33700
H1370       H  0.64723634  0.12778339  0.74323460     0.30400
H1371       H  0.56153674  0.06950935  0.81886843     0.38300
H1372       H  0.58866498  0.05283835  0.82456130     0.33700
C1373       C  0.76759401  0.04670632  0.65112384    -0.20000
C1374       C  0.76496934  0.05307509  0.62451470     0.36200
C1375       C  0.77961081  0.07347190  0.61422302    -0.26000
C1376       C  0.79700814  0.08731968  0.62969877     0.02600
C1377       C  0.80008673  0.08090732  0.65600219     0.27500
C1378       C  0.78524620  0.06068374  0.66653397    -0.25100
N1379       N  0.74771836  0.03877295  0.60792571    -0.82500
H1380       H  0.77773712  0.07845959  0.59387523     0.13300
C1381       C  0.81261315  0.10767536  0.61730380     0.02600
N1382       N  0.81818682  0.09497274  0.67182267    -0.81100
H1383       H  0.78737254  0.05596946  0.68690357     0.18100
C1384       C  0.80471183  0.13364352  0.61884256    -0.25900
C1385       C  0.81663563  0.15285822  0.60360964     0.36100
C1386       C  0.83695415  0.14569107  0.58671889    -0.19900
C1387       C  0.84566635  0.11980421  0.58657326    -0.25200
C1388       C  0.83363097  0.10073578  0.60162411     0.27500
H1389       H  0.78853402  0.13869203  0.63115219     0.13300
N1390       N  0.80822192  0.17941171  0.60539495    -0.82500
H1391       H  0.86138493  0.11414345  0.57394254     0.18100
N1392       N  0.84201839  0.07412730  0.60042264    -0.81100
H1393       H  0.79479807  0.18156590  0.62037514     0.33700
H1394       H  0.79834030  0.18378611  0.58827150     0.38200
H1395       H  0.85754983  0.07214769  0.58764430     0.33700
H1396       H  0.84886992  0.06906573  0.61881442     0.30400
H1397       H  0.81797126  0.08796039  0.69084648     0.33700
H1398       H  0.83664415  0.09129367  0.66453749     0.30400
H1399       H  0.75494915  0.01987649  0.60628612     0.38300
H1400       H  0.74763415  0.04651354  0.58917579     0.33700
C1401       C  0.67545715  0.94274393  0.72012330    -0.20000
C1402       C  0.68300483  0.92397744  0.73852956     0.36200
C1403       C  0.66393606  0.91071699  0.75259776    -0.26000
C1404       C  0.63771348  0.91596409  0.74843536     0.02600
C1405       C  0.63022240  0.93415359  0.72950691     0.27500
C1406       C  0.64919325  0.94731160  0.71548809    -0.25100
N1407       N  0.70985047  0.91854157  0.74286085    -0.82500
H1408       H  0.66947511  0.89663920  0.76719128     0.13300
C1409       C  0.61814427  0.90317536  0.76470557     0.02600
N1410       N  0.60336609  0.93943393  0.72493310    -0.81100
H1411       H  0.64342258  0.96184767  0.70143693     0.18100
C1412       C  0.60213944  0.91868631  0.78016752    -0.25900
C1413       C  0.58257132  0.90762308  0.79520935     0.36100
C1414       C  0.57950042  0.88034424  0.79528503    -0.19900
C1415       C  0.59554324  0.86483160  0.77971588    -0.25200
C1416       C  0.61484493  0.87603445  0.76430680     0.27500
H1417       H  0.60478416  0.93958169  0.78021305     0.13300
N1418       N  0.56557673  0.92401855  0.80999439    -0.82500
H1419       H  0.59316954  0.84391291  0.77974960     0.18100
N1420       N  0.63098162  0.86007414  0.74816123    -0.81100
H1421       H  0.57066713  0.94356290  0.80792185     0.33700
H1422       H  0.54708041  0.92206286  0.80211351     0.38200
H1423       H  0.62611519  0.84047366  0.75021122     0.33700
H1424       H  0.62718488  0.86499281  0.72884803     0.30400
H1425       H  0.60114619  0.95361718  0.71059841     0.33700
H1426       H  0.59498030  0.92242801  0.71768729     0.30400
H1427       H  0.71728422  0.91073705  0.72568158     0.38300
H1428       H  0.71204187  0.90427011  0.75711559     0.33700
C1429       C  0.46927678  0.88067128  0.80312658    -0.20000
C1430       C  0.46130441  0.87284559  0.77803602     0.36200
C1431       C  0.44120985  0.88628672  0.76586861    -0.26000
C1432       C  0.42934133  0.90737302  0.77809912     0.02600
C1433       C  0.43666672  0.91482898  0.80326730     0.27500
C1434       C  0.45650315  0.90125188  0.81565576    -0.25100
N1435       N  0.47402649  0.85193280  0.76465573    -0.82500
H1436       H  0.43543037  0.88104177  0.74632660     0.13300
C1437       C  0.41166922  0.92351039  0.76297955     0.02600
N1438       N  0.42434850  0.93650471  0.81580354    -0.81100
H1439       H  0.46228450  0.90709400  0.83501629     0.18100
C1440       C  0.38512941  0.92223577  0.76763607    -0.25900
C1441       C  0.36803155  0.93795110  0.75355427     0.36100
C1442       C  0.37802414  0.95526326  0.73486387    -0.19900
C1443       C  0.40462986  0.95609078  0.73009813    -0.25200
C1444       C  0.42160989  0.94048210  0.74414852     0.27500
H1445       H  0.37784932  0.90894077  0.78217921     0.13300
N1446       N  0.34071595  0.93622355  0.75793608    -0.82500
H1447       H  0.41230185  0.96954937  0.71591015     0.18100
N1448       N  0.44895157  0.94195488  0.73968169    -0.81100
H1449       H  0.33668598  0.92258090  0.77239074     0.33700
H1450       H  0.33226586  0.92923238  0.74086161     0.38200
H1451       H  0.45306926  0.95530128  0.72497771     0.33700
H1452       H  0.45752617  0.94916081  0.75659848     0.30400
H1453       H  0.43188320  0.93928878  0.83442907     0.33700
H1454       H  0.42884004  0.95321840  0.80521582     0.30400
H1455       H  0.49280554  0.85804514  0.76053068     0.38300
H1456       H  0.46518396  0.84829674  0.74676473     0.33700
C1457       C  0.41099861  0.73052975  0.97783006    -0.20000
C1458       C  0.39582541  0.74496065  0.96017654     0.36200
C1459       C  0.40804493  0.76129178  0.94219929    -0.26000
C1460       C  0.43495268  0.76313820  0.94145741     0.02600
C1461       C  0.45012577  0.74828936  0.95858099     0.27500
C1462       C  0.43797630  0.73214108  0.97665310    -0.25100
N1463       N  0.36819198  0.74271596  0.96030219    -0.82500
H1464       H  0.39662505  0.77264491  0.92872901     0.13300
C1465       C  0.44733373  0.78068611  0.92271587     0.02600
N1466       N  0.47780390  0.74975248  0.95749703    -0.81100
H1467       H  0.44963016  0.72098415  0.99008180     0.18100
C1468       C  0.46166235  0.80170015  0.93218002    -0.25900
C1469       C  0.47677374  0.81680415  0.91550923     0.36100
C1470       C  0.47708223  0.81088350  0.88868069    -0.19900
C1471       C  0.46154419  0.79064970  0.87911418    -0.25200
C1472       C  0.44669845  0.77538440  0.89593387     0.27500
H1473       H  0.46186199  0.80559405  0.95285942     0.13300
N1474       N  0.49255631  0.83730109  0.92596142    -0.82500
H1475       H  0.46151917  0.78627355  0.85853843     0.18100
N1476       N  0.43160719  0.75409608  0.88608481    -0.81100
H1477       H  0.48937465  0.83948418  0.94587825     0.33700
H1478       H  0.51181574  0.83164603  0.92390183     0.38200
H1479       H  0.43312385  0.75295159  0.86588735     0.33700
H1480       H  0.43947670  0.73691759  0.89345989     0.30400
H1481       H  0.48611635  0.73775510  0.97156005     0.33700
H1482       H  0.48358283  0.74246392  0.93946621     0.30400
H1483       H  0.36358638  0.72365252  0.95497698     0.38300
H1484       H  0.36001476  0.75479452  0.94622471     0.33700
C1485       C  0.65425169  0.73385745  0.97041044    -0.20000
C1486       C  0.63076677  0.72451206  0.95986140     0.36200
C1487       C  0.61810680  0.73917541  0.94085631    -0.26000
C1488       C  0.62883587  0.76229848  0.93155424     0.02600
C1489       C  0.65292946  0.77080335  0.94078846     0.27500
C1490       C  0.66528088  0.75665484  0.96033694    -0.25100
N1491       N  0.61973733  0.70036537  0.96843576    -0.82500
H1492       H  0.59956454  0.73277840  0.93351597     0.13300
C1493       C  0.61371103  0.77841552  0.91356691     0.02600
N1494       N  0.66454696  0.79393271  0.93041512    -0.81100
H1495       H  0.68352000  0.76365957  0.96785440     0.18100
C1496       C  0.60702766  0.80359427  0.92131485    -0.25900
C1497       C  0.59142503  0.81930909  0.90571688     0.36100
C1498       C  0.58190364  0.80927407  0.88197058    -0.19900
C1499       C  0.58917265  0.78414436  0.87404857    -0.25200
C1500       C  0.60501859  0.76860891  0.88962477     0.27500
H1501       H  0.61369676  0.81083767  0.93991238     0.13300
N1502       N  0.58481765  0.84505834  0.91431414    -0.82500
H1503       H  0.58206554  0.77630807  0.85587526     0.18100
N1504       N  0.61204903  0.74283868  0.88145420    -0.81100
H1505       H  0.59241254  0.84875280  0.93276421     0.33700
H1506       H  0.59376637  0.85817504  0.90173950     0.38200
H1507       H  0.60381898  0.73848027  0.86343300     0.33700
H1508       H  0.63203664  0.74255166  0.87885900     0.30400
H1509       H  0.68227243  0.79760390  0.93938435     0.33700
H1510       H  0.66844842  0.79048029  0.91080724     0.30400
H1511       H  0.63206408  0.68546548  0.96238041     0.38300
H1512       H  0.60204931  0.69694183  0.95929250     0.33700
C1513       C  0.80443241  0.56239565  0.15038397    -0.20000
C1514       C  0.78312070  0.57514905  0.16195366     0.36200
C1515       C  0.76934790  0.59354411  0.14754629    -0.26000
C1516       C  0.77666014  0.59976004  0.12221636     0.02600
C1517       C  0.79819348  0.58772418  0.11083298     0.27500
C1518       C  0.81192981  0.56917347  0.12506844    -0.25100
N1519       N  0.77546343  0.56951266  0.18816144    -0.82500
H1520       H  0.75281819  0.60319433  0.15607797     0.13300
C1521       C  0.76099416  0.61840870  0.10755382     0.02600
N1522       N  0.80569321  0.59409248  0.08474582    -0.81100
H1523       H  0.82827926  0.55964337  0.11610031     0.18100
C1524       C  0.77185091  0.64214090  0.10017362    -0.25900
C1525       C  0.75776822  0.65996996  0.08528982     0.36100
C1526       C  0.73198846  0.65399393  0.07833512    -0.19900
C1527       C  0.72111024  0.63032712  0.08645921    -0.25200
C1528       C  0.73548134  0.61232507  0.10067531     0.27500
H1529       H  0.79158257  0.64646948  0.10562942     0.13300
N1530       N  0.76979688  0.68370438  0.07694815    -0.82500
H1531       H  0.70150584  0.62541176  0.08108728     0.18100
N1532       N  0.72450154  0.58766218  0.10774376    -0.81100
H1533       H  0.78813775  0.68563222  0.08517888     0.33700
H1534       H  0.77269699  0.68225078  0.05692063     0.38200
H1535       H  0.70545687  0.58625225  0.10123361     0.33700
H1536       H  0.73489130  0.57319203  0.09804372     0.30400
H1537       H  0.82210123  0.58360183  0.07932204     0.33700
H1538       H  0.79083223  0.58814284  0.07237015     0.30400
H1539       H  0.79009962  0.57625733  0.20041692     0.38300
H1540       H  0.75885417  0.57988768  0.19315012     0.33700
C1541       C  0.65769968  0.73939728  0.08276489    -0.20000
C1542       C  0.63204522  0.73442951  0.09079171     0.36200
C1543       C  0.62126655  0.74936529  0.11075886    -0.26000
C1544       C  0.63530390  0.76920798  0.12275888     0.02600
C1545       C  0.66085699  0.77421934  0.11515573     0.27500
C1546       C  0.67180890  0.75929890  0.09509773    -0.25100
N1547       N  0.61684072  0.71448739  0.07856446    -0.82500
H1548       H  0.60158040  0.74577853  0.11684462     0.13300
C1549       C  0.62215383  0.78469555  0.14281512     0.02600
N1550       N  0.67571613  0.79387602  0.12823331    -0.81100
H1551       H  0.69153581  0.76303608  0.08930787     0.18100
C1552       C  0.62046795  0.77480808  0.16804912    -0.25900
C1553       C  0.60371677  0.78597792  0.18636656     0.36100
C1554       C  0.58878569  0.80787725  0.17924748    -0.19900
C1555       C  0.59156903  0.81835054  0.15419109    -0.25200
C1556       C  0.60781689  0.80677033  0.13581079     0.27500
H1557       H  0.63129469  0.75750141  0.17301457     0.13300
N1558       N  0.60167539  0.77488168  0.21186561    -0.82500
H1559       H  0.58016175  0.83501908  0.14846179     0.18100
N1560       N  0.60864726  0.81635631  0.10961875    -0.81100
H1561       H  0.61553047  0.76035501  0.21445575     0.33700
H1562       H  0.58381261  0.76553663  0.21296162     0.38200
H1563       H  0.59618819  0.83216124  0.10738062     0.33700
H1564       H  0.62722815  0.82337418  0.10617319     0.30400
H1565       H  0.69437379  0.79472638  0.12062067     0.33700
H1566       H  0.66721611  0.81187616  0.12446015     0.30400
H1567       H  0.61334131  0.72035177  0.05946655     0.38300
H1568       H  0.59880395  0.71283488  0.08746364     0.33700
C1569       C  0.88431950  0.55073490  0.84122955    -0.20000
C1570       C  0.87701951  0.55990376  0.81635047     0.36200
C1571       C  0.89414326  0.57560247  0.80231849    -0.26000
C1572       C  0.91816827  0.58248978  0.81260149     0.02600
C1573       C  0.92507350  0.57443508  0.83773828     0.27500
C1574       C  0.90799468  0.55878614  0.85189226    -0.25100
N1575       N  0.85255631  0.55295495  0.80515190    -0.82500
H1576       H  0.88898982  0.58214588  0.78301328     0.13300
C1577       C  0.93666370  0.59655393  0.79605317     0.02600
N1578       N  0.94974831  0.58146906  0.84839902    -0.81100
H1579       H  0.91372005  0.55202206  0.87093931     0.18100
C1580       C  0.94431667  0.62174754  0.80281901    -0.25900
C1581       C  0.96237951  0.63534491  0.78774326     0.36100
C1582       C  0.97331051  0.62309418  0.76566418    -0.19900
C1583       C  0.96514188  0.59794000  0.75886051    -0.25200
C1584       C  0.94701809  0.58454162  0.77385450     0.27500
H1585       H  0.93604398  0.63082002  0.81988030     0.13300
N1586       N  0.96962861  0.66134704  0.79495138    -0.82500
H1587       H  0.97321827  0.58840563  0.74197115     0.18100
N1588       N  0.93936264  0.55857891  0.76691032    -0.81100
H1589       H  0.96064239  0.66684461  0.81226505     0.33700
H1590       H  0.96253750  0.67383517  0.78063741     0.38200
H1591       H  0.94864048  0.55259226  0.74991594     0.33700
H1592       H  0.94562919  0.54614897  0.78165090     0.30400
H1593       H  0.95183615  0.57403189  0.86715072     0.33700
H1594       H  0.96394493  0.57260290  0.83703354     0.30400
H1595       H  0.83820004  0.56170683  0.81639817     0.38300
H1596       H  0.85070376  0.56062543  0.78646479     0.33700
C1597       C  0.79847524  0.55127530  0.91129718    -0.20000
C1598       C  0.79305054  0.55078962  0.93811420     0.36200
C1599       C  0.77877013  0.57105238  0.94920744    -0.26000
C1600       C  0.76976995  0.59170128  0.93403422     0.02600
C1601       C  0.77520634  0.59234443  0.90726704     0.27500
C1602       C  0.78942469  0.57194422  0.89606151    -0.25100
N1603       N  0.80157047  0.52940676  0.95383345    -0.82500
H1604       H  0.77445085  0.57071757  0.96978168     0.13300
C1605       C  0.75414081  0.61209854  0.94663960     0.02600
N1606       N  0.76627135  0.61366541  0.89168690    -0.81100
H1607       H  0.79386763  0.57238402  0.87552356     0.18100
C1608       C  0.76401459  0.63732992  0.94897525    -0.25900
C1609       C  0.75061948  0.65651294  0.96298463     0.36100
C1610       C  0.72692414  0.65008739  0.97501485    -0.19900
C1611       C  0.71668868  0.62500001  0.97157906    -0.25200
C1612       C  0.73007227  0.60596640  0.95758300     0.27500
H1613       H  0.78253657  0.64183930  0.94037025     0.13300
N1614       N  0.76126448  0.68219992  0.96537803    -0.82500
H1615       H  0.69851319  0.61985303  0.98054358     0.18100
N1616       N  0.71962749  0.58021441  0.95485827    -0.81100
H1617       H  0.77907948  0.68338250  0.95596949     0.33700
H1618       H  0.74887924  0.69491850  0.95564495     0.38200
H1619       H  0.70184972  0.57875352  0.96430915     0.33700
H1620       H  0.71605911  0.57707404  0.93513594     0.30400
H1621       H  0.77207894  0.61130562  0.87240744     0.33700
H1622       H  0.74611573  0.61317619  0.89170207     0.30400
H1623       H  0.79170043  0.51291964  0.94735798     0.38300
H1624       H  0.79624110  0.53216545  0.97320575     0.33700
C1625       C  0.80461098  0.43857959  0.91423354    -0.20000
C1626       C  0.80419673  0.43510926  0.94141876     0.36200
C1627       C  0.79098310  0.41376737  0.95185965    -0.26000
C1628       C  0.77832324  0.39592342  0.93573744     0.02600
C1629       C  0.77920845  0.39888327  0.90866053     0.27500
C1630       C  0.79216982  0.42035861  0.89813734    -0.25100
N1631       N  0.81670353  0.45342654  0.95834265    -0.82500
H1632       H  0.79006015  0.41126496  0.97272042     0.13300
C1633       C  0.76307803  0.37510722  0.94789994     0.02600
N1634       N  0.76697722  0.38007094  0.89207574    -0.81100
H1635       H  0.79287645  0.42267552  0.87725306     0.18100
C1636       C  0.73629383  0.37792489  0.94937985    -0.25900
C1637       C  0.72142559  0.36102651  0.96461456     0.36100
C1638       C  0.73383213  0.34106724  0.97880864    -0.19900
C1639       C  0.76050152  0.33722175  0.97560757    -0.25200
C1640       C  0.77525639  0.35414150  0.96030669     0.27500
H1641       H  0.72713677  0.39402724  0.93945298     0.13300
N1642       N  0.69397259  0.36455249  0.96623033    -0.82500
H1643       H  0.77013072  0.32176080  0.98605601     0.18100
N1644       N  0.80267574  0.35077914  0.95804115    -0.81100
H1645       H  0.68810557  0.38042541  0.95502696     0.33700
H1646       H  0.68530338  0.34812784  0.95805346     0.38200
H1647       H  0.80872927  0.33453161  0.96857249     0.33700
H1648       H  0.80673175  0.34688630  0.93855006     0.30400
H1649       H  0.76943611  0.38508789  0.87258114     0.33700
H1650       H  0.77647755  0.36235001  0.89473607     0.30400
H1651       H  0.80693164  0.47107653  0.95660843     0.38300
H1652       H  0.81485965  0.44773544  0.97771679     0.33700
C1653       C  0.88997094  0.44277015  0.84710408    -0.20000
C1654       C  0.91687567  0.44326945  0.85187174     0.36200
C1655       C  0.93307622  0.42670806  0.83770368    -0.26000
C1656       C  0.92301991  0.40937619  0.81940610     0.02600
C1657       C  0.89619885  0.40763781  0.81566207     0.27500
C1658       C  0.87988507  0.42450873  0.82947461    -0.25100
N1659       N  0.92787393  0.46139129  0.87005085    -0.82500
H1660       H  0.95378669  0.42780297  0.84036085     0.13300
C1661       C  0.94121925  0.39557898  0.80233224     0.02600
N1662       N  0.88573725  0.38897033  0.79772535    -0.81100
H1663       H  0.85926665  0.42370233  0.82614504     0.18100
C1664       C  0.95136572  0.37153682  0.80984708    -0.25900
C1665       C  0.97066574  0.35929341  0.79501793     0.36100
C1666       C  0.97957143  0.37135249  0.77199124    -0.19900
C1667       C  0.96902979  0.39544520  0.76464530    -0.25200
C1668       C  0.95009522  0.40770061  0.77962512     0.27500
H1669       H  0.94465033  0.36267401  0.82766381     0.13300
N1670       N  0.98137695  0.33499672  0.80352907    -0.82500
H1671       H  0.97566181  0.40497097  0.74715416     0.18100
N1672       N  0.94033019  0.43281628  0.77232071    -0.81100
H1673       H  0.97205103  0.32849841  0.82028664     0.33700
H1674       H  0.00055433  0.33844141  0.80880112     0.38200
H1675       H  0.94934236  0.43941378  0.75542865     0.33700
H1676       H  0.92078637  0.43071045  0.76783603     0.30400
H1677       H  0.86559760  0.38994574  0.79754353     0.33700
H1678       H  0.89187281  0.39401423  0.77909718     0.30400
H1679       H  0.92262167  0.45528253  0.88864564     0.38300
H1680       H  0.94801478  0.46063262  0.86951524     0.33700
loop_ 
_geom_bond_atom_site_label_1 
_geom_bond_atom_site_label_2 
_geom_bond_distance 
_geom_bond_site_symmetry_2 
_ccdc_geom_bond_type 
O1            V9   1.906       .  S
O1           C11   1.266       .  A
O2            V9   1.903       .  S
O2           C12   1.266       .  A
O3            V9   1.892       .  S
O3           C13   1.263       .  A
O4            V9   1.890       .  S
O4           C14   1.262       .  A
O5           V10   1.900       .  S
O5           C14   1.266       .  A
O6           V10   1.899       .  S
O6           C13   1.265       .  A
O7           V10   1.889       .  S
O7           C12   1.262       .  A
O8           V10   1.890       .  S
O8           C11   1.262       .  A
V9           V10   2.086       .  T
C11        C1597   1.473       .  S
C12        C1653   1.481       .  S
C13        C1625   1.477       .  S
C14        C1569   1.484       .  S
O15          V23   1.885       .  S
O15          C25   1.263       .  A
O16          V23   1.887       .  S
O16          C26   1.261   1_554  A
O17          V23   1.890       .  S
O17          C27   1.264   1_554  A
O18          V23   1.891       .  S
O18          C28   1.263       .  A
O19          V24   1.903       .  S
O19          C28   1.266       .  A
O20          V24   1.899       .  S
O20          C27   1.265   1_554  A
O21          V24   1.892   1_556  S
O21          C26   1.264       .  A
O22          V24   1.891       .  S
O22          C25   1.262       .  A
V23          V24   2.084       .  T
C25        C1526   1.477       .  S
C26        C1485   1.477       .  S
C27        C1610   1.483       .  S
C28        C1541   1.484       .  S
O29          V37   1.886       .  S
O29          C39   1.263       .  A
O30          V37   1.888       .  S
O30          C40   1.262       .  A
O31          V37   1.888       .  S
O31          C41   1.262       .  A
O32          V37   1.887       .  S
O32          C42   1.261       .  A
O33          V38   1.894       .  S
O33          C42   1.264       .  A
O34          V38   1.897       .  S
O34          C41   1.264       .  A
O35          V38   1.889       .  S
O35          C40   1.263       .  A
O36          V38   1.888       .  S
O36          C39   1.262       .  A
V37          V38   2.086       .  T
C39        C1429   1.472       .  S
C40        C1498   1.477       .  S
C41        C1414   1.473       .  S
C42        C1470   1.474       .  S
O43          V51   1.899   1_545  S
O43          C53   1.265       .  A
O44          V51   1.898       .  S
O44          C54   1.264       .  A
O45          V51   1.888       .  S
O45          C55   1.263       .  A
O46          V51   1.888   1_545  S
O46          C56   1.263       .  A
O47          V52   1.895   1_545  S
O47          C56   1.264       .  A
O48          V52   1.895       .  S
O48          C55   1.264       .  A
O49          V52   1.884       .  S
O49          C54   1.261       .  A
O50          V52   1.889   1_545  S
O50          C53   1.262       .  A
V51          V52   2.086       .  T
C53        C1373   1.481       .  S
C54        C1401   1.468       .  S
C55        C1330   1.479       .  S
C56        C1358   1.479       .  S
O57          V65   1.895       .  S
O57          C67   1.265   1_455  A
O58          V65   1.899       .  S
O58          C68   1.264       .  A
O59          V65   1.885       .  S
O59          C69   1.263       .  A
O60          V65   1.888       .  S
O60          C70   1.262   1_455  A
O61          V66   1.904       .  S
O61          C70   1.266   1_455  A
O62          V66   1.906       .  S
O62          C69   1.266       .  A
O63          V66   1.891       .  S
O63          C68   1.264       .  A
O64          V66   1.892       .  S
O64          C67   1.262   1_455  A
V65          V66   2.083       .  T
C67        C1582   1.483       .  S
C68        C1261   1.482       .  S
C69        C1302   1.485       .  S
C70        C1246   1.485       .  S
O71          V79   1.890       .  S
O71          C81   1.262       .  A
O72          V79   1.887       .  S
O72          C82   1.263       .  A
O73          V79   1.892       .  S
O73          C83   1.262       .  A
O74          V79   1.890       .  S
O74          C84   1.263       .  A
O75          V80   1.899       .  S
O75          C84   1.264       .  A
O76          V80   1.900       .  S
O76          C83   1.266       .  A
O77          V80   1.895       .  S
O77          C82   1.263       .  A
O78          V80   1.893       .  S
O78          C81   1.264       .  A
V79          V80   2.085       .  T
C81        C1317   1.473       .  S
C82        C1177   1.479       .  S
C83        C1205   1.481       .  S
C84        C1233   1.475       .  S
O85          V93   1.892       .  S
O85          C95   1.263       .  A
O86          V93   1.895       .  S
O86          C96   1.264       .  A
O87          V93   1.887       .  S
O87          C97   1.262       .  A
O88          V93   1.886       .  S
O88          C98   1.261       .  A
O89          V94   1.904       .  S
O89          C98   1.266       .  A
O90          V94   1.905       .  S
O90          C97   1.266       .  A
O91          V94   1.888       .  S
O91          C96   1.263       .  A
O92          V94   1.884       .  S
O92          C95   1.262       .  A
V93          V94   2.084       .  T
C95        C1149   1.476       .  S
C96        C1345   1.480       .  S
C97        C1121   1.481       .  S
C98        C1106   1.482       .  S
O99         V107   1.895       .  S
O99         C109   1.264   1_554  A
O100        V107   1.895       .  S
O100        C110   1.265       .  A
O101        V107   1.889       .  S
O101        C111   1.263       .  A
O102        V107   1.888       .  S
O102        C112   1.262       .  A
O103        V108   1.905       .  S
O103        C112   1.267       .  A
O104        V108   1.907       .  S
O104        C111   1.266       .  A
O105        V108   1.903       .  S
O105        C110   1.265       .  A
O106        V108   1.898       .  S
O106        C109   1.265   1_554  A
V107        V108   2.083       .  T
C109       C1638   1.483       .  S
C110       C1078   1.489       .  S
C111       C1050   1.488       .  S
C112       C1134   1.488   1_554  S
O113        V121   1.906       .  S
O113        C123   1.265       .  A
O114        V121   1.906       .  S
O114        C124   1.266       .  A
O115        V121   1.887       .  S
O115        C125   1.261       .  A
O116        V121   1.881       .  S
O116        C126   1.261       .  A
O117        V122   1.896       .  S
O117        C126   1.264       .  A
O118        V122   1.892       .  S
O118        C125   1.264       .  A
O119        V122   1.891       .  S
O119        C124   1.263       .  A
O120        V122   1.892       .  S
O120        C123   1.262       .  A
V121        V122   2.086       .  T
C123       C1037   1.472       .  S
C124        C981   1.487       .  S
C125       C1513   1.477       .  S
C126       C1022   1.473       .  S
O127        V135   1.904       .  S
O127        C137   1.265       .  A
O128        V135   1.901       .  S
O128        C138   1.265       .  A
O129        V135   1.896       .  S
O129        C139   1.264       .  A
O130        V135   1.893       .  S
O130        C140   1.263       .  A
O131        V136   1.892       .  S
O131        C140   1.263       .  A
O132        V136   1.891       .  S
O132        C139   1.264       .  A
O133        V136   1.891       .  S
O133        C138   1.262       .  A
O134        V136   1.891       .  S
O134        C137   1.262       .  A
V135        V136   2.087       .  T
C137        C994   1.476   1_455  S
C138        C938   1.472       .  S
C139        C953   1.478       .  S
C140       C1190   1.475   1_455  S
O141        V149   1.894       .  S
O141        C151   1.263       .  A
O142        V149   1.895       .  S
O142        C152   1.263       .  A
O143        V149   1.897       .  S
O143        C153   1.265       .  A
O144        V149   1.896       .  S
O144        C154   1.264       .  A
O145        V150   1.892       .  S
O145        C154   1.263       .  A
O146        V150   1.898       .  S
O146        C153   1.264       .  A
O147        V150   1.896       .  S
O147        C152   1.265       .  A
O148        V150   1.894       .  S
O148        C151   1.265       .  A
V149        V150   2.083       .  T
C151        C869   1.484       .  S
C152        C925   1.484       .  S
C153        C897   1.487       .  S
C154       C1274   1.482       .  S
O155        V163   1.884       .  S
O155        C165   1.262       .  A
O156        V163   1.884   1_565  S
O156        C166   1.262       .  A
O157        V163   1.885   1_565  S
O157        C167   1.261       .  A
O158        V163   1.886       .  S
O158        C168   1.262       .  A
O159        V164   1.903       .  S
O159        C168   1.265       .  A
O160        V164   1.902   1_565  S
O160        C167   1.265       .  A
O161        V164   1.893   1_565  S
O161        C166   1.263       .  A
O162        V164   1.894       .  S
O162        C165   1.264       .  A
V163        V164   2.087       .  T
C165        C854   1.474       .  S
C166       C1442   1.466       .  S
C167        C882   1.472       .  S
C168       C1093   1.473       .  S
O169        V177   1.899   1_565  S
O169        C179   1.264       .  A
O170        V177   1.900       .  S
O170        C180   1.265       .  A
O171        V177   1.892       .  S
O171        C181   1.262       .  A
O172        V177   1.887   1_565  S
O172        C182   1.261       .  A
O173        V178   1.901   1_565  S
O173        C182   1.265       .  A
O174        V178   1.898       .  S
O174        C181   1.266       .  A
O175        V178   1.890       .  S
O175        C180   1.262       .  A
O176        V178   1.890   1_565  S
O176        C179   1.264       .  A
V177        V178   2.085       .  T
C179       C1218   1.484       .  S
C180        C813   1.478       .  S
C181        C770   1.482       .  S
C182        C798   1.478       .  S
O183        V191   1.899       .  S
O183        C193   1.264       .  A
O184        V191   1.901       .  S
O184        C194   1.265       .  A
O185        V191   1.889       .  S
O185        C195   1.261       .  A
O186        V191   1.890       .  S
O186        C196   1.263       .  A
O187        V192   1.899       .  S
O187        C196   1.265       .  A
O188        V192   1.897       .  S
O188        C195   1.266       .  A
O189        V192   1.888       .  S
O189        C194   1.263       .  A
O190        V192   1.886       .  S
O190        C193   1.263       .  A
V191        V192   2.084       .  T
C193        C729   1.480       .  S
C194       C1554   1.483       .  S
C195        C785   1.483       .  S
C196        C701   1.479       .  S
O197        V205   1.890       .  S
O197        C207   1.263       .  A
O198        V205   1.892       .  S
O198        C208   1.264       .  A
O199        V205   1.888       .  S
O199        C209   1.262       .  A
O200        V205   1.891       .  S
O200        C210   1.262       .  A
O201        V206   1.903       .  S
O201        C210   1.266       .  A
O202        V206   1.906       .  S
O202        C209   1.265       .  A
O203        V206   1.890       .  S
O203        C208   1.263       .  A
O204        V206   1.892       .  S
O204        C207   1.263       .  A
V205        V206   2.086       .  T
C207        C658   1.475       .  S
C208        C630   1.476       .  S
C209        C673   1.475       .  S
C210       C1289   1.477       .  S
O211        V219   1.897       .  S
O211        C221   1.265       .  A
O212        V219   1.894       .  S
O212        C222   1.263   1_554  A
O213        V219   1.890       .  S
O213        C223   1.263   1_554  A
O214        V219   1.892       .  S
O214        C224   1.263       .  A
O215        V220   1.895       .  S
O215        C224   1.264       .  A
O216        V220   1.896       .  S
O216        C223   1.264   1_554  A
O217        V220   1.893       .  S
O217        C222   1.264   1_554  A
O218        V220   1.893       .  S
O218        C221   1.263       .  A
V219        V220   2.086       .  T
C221        C589   1.482       .  S
C222       C1457   1.473       .  S
C223        C645   1.476       .  S
C224        C714   1.475       .  S
O225        V233   1.888       .  S
O225        C235   1.263       .  A
O226        V233   1.892       .  S
O226        C236   1.264       .  A
O227        V233   1.891       .  S
O227        C237   1.262       .  A
O228        V233   1.892       .  S
O228        C238   1.264       .  A
O229        V234   1.905       .  S
O229        C238   1.266       .  A
O230        V234   1.903       .  S
O230        C237   1.264       .  A
O231        V234   1.893       .  S
O231        C236   1.263       .  A
O232        V234   1.896       .  S
O232        C235   1.263       .  A
V233        V234   2.084       .  T
C235        C546   1.479       .  S
C236        C966   1.480       .  S
C237        C602   1.470       .  S
C238        C561   1.489       .  S
O239        V247   1.898       .  S
O239        C249   1.264   1_554  A
O240        V247   1.894       .  S
O240        C250   1.264       .  A
O241        V247   1.893       .  S
O241        C251   1.263       .  A
O242        V247   1.890       .  S
O242        C252   1.264   1_554  A
O243        V248   1.885       .  S
O243        C252   1.261   1_554  A
O244        V248   1.887       .  S
O244        C251   1.263       .  A
O245        V248   1.894       .  S
O245        C250   1.263       .  A
O246        V248   1.895       .  S
O246        C249   1.265   1_554  A
V247        V248   2.085       .  T
C249        C686   1.485       .  S
C250        C518   1.479       .  S
C251        C533   1.475       .  S
C252       C1162   1.474       .  S
O253        V261   1.903       .  S
O253        C263   1.265       .  A
O254        V261   1.900       .  S
O254        C264   1.265       .  A
O255        V261   1.903       .  S
O255        C265   1.266       .  A
O256        V261   1.903       .  S
O256        C266   1.266       .  A
O257        V262   1.894       .  S
O257        C266   1.264       .  A
O258        V262   1.889       .  S
O258        C265   1.263       .  A
O259        V262   1.885       .  S
O259        C264   1.262       .  A
O260        V262   1.885       .  S
O260        C263   1.262       .  A
V261        V262   2.085       .  T
C263        C826   1.474       .  S
C264        C505   1.478       .  S
C265        C477   1.482       .  S
C266       C1065   1.487       .  S
O267        V275   1.893       .  S
O267        C277   1.264   1_455  A
O268        V275   1.894       .  S
O268        C278   1.265       .  A
O269        V275   1.893       .  S
O269        C279   1.262       .  A
O270        V275   1.889       .  S
O270        C280   1.263   1_455  A
O271        V276   1.904       .  S
O271        C280   1.266   1_455  A
O272        V276   1.905       .  S
O272        C279   1.265       .  A
O273        V276   1.887       .  S
O273        C278   1.261       .  A
O274        V276   1.889       .  S
O274        C277   1.262   1_455  A
V275        V276   2.085       .  T
C277        C434   1.477       .  S
C278        C617   1.479       .  S
C279        C449   1.471       .  S
C280       C1666   1.486       .  S
O281        V289   1.895       .  S
O281        C291   1.264       .  A
O282        V289   1.889       .  S
O282        C292   1.264       .  A
O283        V289   1.887       .  S
O283        C293   1.262       .  A
O284        V289   1.887       .  S
O284        C294   1.262       .  A
O285        V290   1.906       .  S
O285        C294   1.266       .  A
O286        V290   1.905       .  S
O286        C293   1.266       .  A
O287        V290   1.894       .  S
O287        C292   1.263       .  A
O288        V290   1.895       .  S
O288        C291   1.264       .  A
V289        V290   2.085       .  T
C291        C757   1.479       .  S
C292        C421   1.479       .  S
C293       C1386   1.481       .  S
C294        C393   1.479       .  S
O295        V303   1.897       .  S
O295        C305   1.266       .  A
O296        V303   1.903       .  S
O296        C306   1.265       .  A
O297        V303   1.886       .  S
O297        C307   1.263       .  A
O298        V303   1.884       .  S
O298        C308   1.261       .  A
O299        V304   1.892       .  S
O299        C308   1.264       .  A
O300        V304   1.894       .  S
O300        C307   1.263       .  A
O301        V304   1.889       .  S
O301        C306   1.264       .  A
O302        V304   1.891       .  S
O302        C305   1.262       .  A
V303        V304   2.085       .  T
C305        C365   1.482       .  S
C306        C462   1.483       .  S
C307        C841   1.479       .  S
C308        C337   1.472       .  S
O309        V317   1.888   1_565  S
O309        C319   1.262       .  A
O310        V317   1.890       .  S
O310        C320   1.262       .  A
O311        V317   1.892       .  S
O311        C321   1.263       .  A
O312        V317   1.892   1_565  S
O312        C322   1.262       .  A
O313        V318   1.892       .  S
O313        C322   1.264       .  A
O314        V318   1.889   1_545  S
O314        C321   1.261       .  A
O315        V318   1.902   1_545  S
O315        C320   1.265       .  A
O316        V318   1.904       .  S
O316        C319   1.267       .  A
V317        V318   2.086   1_545  T
C319        C910   1.487       .  S
C320        C490   1.473       .  S
C321        C378   1.466       .  S
C322        C742   1.478       .  S
O323        V331   1.890       .  S
O323        C333   1.262   1_455  A
O324        V331   1.889       .  S
O324        C334   1.264       .  A
O325        V331   1.894       .  S
O325        C335   1.263       .  A
O326        V331   1.895       .  S
O326        C336   1.264   1_455  A
O327        V332   1.905       .  S
O327        C336   1.266   1_455  A
O328        V332   1.904       .  S
O328        C335   1.265       .  A
O329        V332   1.886       .  S
O329        C334   1.261       .  A
O330        V332   1.887       .  S
O330        C333   1.263   1_455  A
V331        V332   2.086       .  T
C333       C1009   1.474       .  S
C334        C350   1.469       .  S
C335        C574   1.478       .  S
C336        C406   1.487       .  S
C337        C338   1.415       .  A
C337        C342   1.404       .  A
C338        C339   1.399       .  A
C338        N343   1.438       .  S
C339        C340   1.399       .  A
C339        H344   1.084       .  S
C340        C345   1.469       .  S
C340        C341   1.408       .  A
C341        C342   1.400       .  A
C341        N346   1.438       .  S
C342        H347   1.084       .  S
N343        H363   1.046       .  S
N343        H364   1.046       .  S
C345        C348   1.400       .  A
C345        C352   1.409       .  A
N346        H361   1.045       .  S
N346        H362   1.046       .  S
C348        C349   1.402       .  A
C348        H353   1.084       .  S
C349        C350   1.414       .  A
C349        N354   1.438       .  S
C350        C351   1.402       .  A
C351        C352   1.396       .  A
C351        H355   1.084       .  S
C352        N356   1.439       .  S
N354        H357   1.046       .  S
N354        H358   1.045       .  S
N356        H359   1.046       .  S
N356        H360   1.045       .  S
C365        C366   1.418       .  A
C365        C370   1.406       .  A
C366        C367   1.402       .  A
C366        N371   1.438       .  S
C367        C368   1.398       .  A
C367        H372   1.084       .  S
C368        C373   1.470       .  S
C368        C369   1.405       .  A
C369        C370   1.401       .  A
C369        N374   1.438       .  S
C370        H375   1.083       .  S
N371        H391   1.046       .  S
N371        H392   1.046       .  S
C373        C376   1.400       .  A
C373        C380   1.408       .  A
N374        H389   1.046       .  S
N374        H390   1.045       .  S
C376        C377   1.403       .  A
C376        H381   1.084       .  S
C377        C378   1.413       .  A
C377        N382   1.438       .  S
C378        C379   1.401       .  A
C379        C380   1.399       .  A
C379        H383   1.084       .  S
C380        N384   1.438       .  S
N382        H385   1.046       .  S
N382        H386   1.045       .  S
N384        H387   1.046       .  S
N384        H388   1.045       .  S
C393        C394   1.415       .  A
C393        C398   1.405       .  A
C394        C395   1.401       .  A
C394        N399   1.439       .  S
C395        C396   1.399       .  A
C395        H400   1.084       .  S
C396        C401   1.478       .  S
C396        C397   1.409       .  A
C397        C398   1.408       .  A
C397        N402   1.437       .  S
C398        H403   1.084       .  S
N399        H419   1.046       .  S
N399        H420   1.046       .  S
C401        C404   1.401       .  A
C401        C408   1.407       .  A
N402        H417   1.046       .  S
N402        H418   1.046       .  S
C404        C405   1.404       .  A
C404        H409   1.084       .  S
C405        C406   1.414       .  A
C405        N410   1.432       .  S
C406        C407   1.408       .  A
C407        C408   1.404       .  A
C407        H411   1.083       .  S
C408        N412   1.438       .  S
N410        H413   1.046       .  S
N410        H414   1.046       .  S
N412        H415   1.046       .  S
N412        H416   1.046       .  S
C421        C422   1.418       .  A
C421        C426   1.405       .  A
C422        C423   1.405       .  A
C422        N427   1.438       .  S
C423        C424   1.398       .  A
C423        H428   1.084       .  S
C424        C429   1.468       .  S
C424        C425   1.405       .  A
C425        C426   1.396       .  A
C425        N430   1.439       .  S
C426        H431   1.083       .  S
N427        H447   1.046       .  S
N427        H448   1.046       .  S
C429        C432   1.398       .  A
C429        C436   1.405       .  A
N430        H445   1.045       .  S
N430        H446   1.046       .  S
C432        C433   1.400       .  A
C432        H437   1.084       .  S
C433        C434   1.416       .  A
C433        N438   1.438       .  S
C434        C435   1.407       .  A
C435        C436   1.401       .  A
C435        H439   1.083       .  S
C436        N440   1.438       .  S
N438        H441   1.046       .  S
N438        H442   1.046       .  S
N440        H443   1.046       .  S
N440        H444   1.046       .  S
C449        C450   1.410       .  A
C449        C454   1.403       .  A
C450        C451   1.402       .  A
C450        N455   1.439       .  S
C451        C452   1.400       .  A
C451        H456   1.084       .  S
C452        C457   1.476       .  S
C452        C453   1.409       .  A
C453        C454   1.408       .  A
C453        N458   1.437       .  S
C454        H459   1.084       .  S
N455        H475   1.046       .  S
N455        H476   1.045       .  S
C457        C460   1.401       .  A
C457        C464   1.405       .  A
N458        H473   1.045       .  S
N458        H474   1.046       .  S
C460        C461   1.409       .  A
C460        H465   1.084       .  S
C461        C462   1.417       .  A
C461        N466   1.438       .  S
C462        C463   1.406       .  A
C463        C464   1.399       .  A
C463        H467   1.083       .  S
C464        N468   1.438       .  S
N466        H469   1.046       .  S
N466        H470   1.046       .  S
N468        H471   1.046       .  S
N468        H472   1.045       .  S
C477        C478   1.416       .  A
C477        C482   1.407       .  A
C478        C479   1.401       .  A
C478        N483   1.438       .  S
C479        C480   1.397       .  A
C479        H484   1.084       .  S
C480        C485   1.472       .  S
C480        C481   1.406       .  A
C481        C482   1.406       .  A
C481        N486   1.437       .  S
C482        H487   1.083       .  S
N483        H503   1.046       .  S
N483        H504   1.046       .  S
C485        C488   1.399       .  A
C485        C492   1.407       .  A
N486        H501   1.046       .  S
N486        H502   1.046       .  S
C488        C489   1.402       .  A
C488        H493   1.084       .  S
C489        C490   1.413       .  A
C489        N494   1.439       .  S
C490        C491   1.404       .  A
C491        C492   1.405       .  A
C491        H495   1.084       .  S
C492        N496   1.437       .  S
N494        H497   1.046       .  S
N494        H498   1.046       .  S
N496        H499   1.046       .  S
N496        H500   1.046       .  S
C505        C506   1.415       .  A
C505        C510   1.407       .  A
C506        C507   1.404       .  A
C506        N511   1.438       .  S
C507        C508   1.399       .  A
C507        H512   1.084       .  S
C508        C513   1.468       .  S
C508        C509   1.403       .  A
C509        C510   1.399       .  A
C509        N514   1.438       .  S
C510        H515   1.083       .  S
N511        H531   1.045       .  S
N511        H532   1.046       .  S
C513        C516   1.398       .  A
C513        C520   1.404       .  A
N514        H529   1.046       .  S
N514        H530   1.045       .  S
C516        C517   1.402       .  A
C516        H521   1.084       .  S
C517        C518   1.416       .  A
C517        N522   1.438       .  S
C518        C519   1.407       .  A
C519        C520   1.402       .  A
C519        H523   1.083       .  S
C520        N524   1.438       .  S
N522        H525   1.046       .  S
N522        H526   1.046       .  S
N524        H527   1.046       .  S
N524        H528   1.045       .  S
C533        C534   1.414       .  A
C533        C538   1.405       .  A
C534        C535   1.402       .  A
C534        N539   1.438       .  S
C535        C536   1.400       .  A
C535        H540   1.084       .  S
C536        C541   1.471       .  S
C536        C537   1.407       .  A
C537        C538   1.399       .  A
C537        N542   1.438       .  S
C538        H543   1.083       .  S
N539        H559   1.046       .  S
N539        H560   1.046       .  S
C541        C544   1.399       .  A
C541        C548   1.406       .  A
N542        H557   1.045       .  S
N542        H558   1.046       .  S
C544        C545   1.404       .  A
C544        H549   1.084       .  S
C545        C546   1.417       .  A
C545        N550   1.438       .  S
C546        C547   1.406       .  A
C547        C548   1.398       .  A
C547        H551   1.083       .  S
C548        N552   1.439       .  S
N550        H553   1.046       .  S
N550        H554   1.046       .  S
N552        H555   1.046       .  S
N552        H556   1.046       .  S
C561        C562   1.418       .  A
C561        C566   1.409       .  A
C562        C563   1.408       .  A
C562        N567   1.438       .  S
C563        C564   1.400       .  A
C563        H568   1.084       .  S
C564        C569   1.476       .  S
C564        C565   1.404       .  A
C565        C566   1.403       .  A
C565        N570   1.438       .  S
C566        H571   1.083       .  S
N567        H587   1.046       .  S
N567        H588   1.046       .  S
C569        C572   1.400       .  A
C569        C576   1.408       .  A
N570        H585   1.045       .  S
N570        H586   1.045       .  S
C572        C573   1.403       .  A
C572        H577   1.084       .  S
C573        C574   1.413       .  A
C573        N578   1.438       .  S
C574        C575   1.405       .  A
C575        C576   1.407       .  A
C575        H579   1.084       .  S
C576        N580   1.437       .  S
N578        H581   1.046       .  S
N578        H582   1.046       .  S
N580        H583   1.046       .  S
N580        H584   1.045       .  S
C589        C590   1.417       .  A
C589        C594   1.406       .  A
C590        C591   1.405       .  A
C590        N595   1.438       .  S
C591        C592   1.399       .  A
C591        H596   1.084       .  S
C592        C597   1.474       .  S
C592        C593   1.406       .  A
C593        C594   1.403       .  A
C593        N598   1.438       .  S
C594        H599   1.083       .  S
N595        H615   1.046       .  S
N595        H616   1.046       .  S
C597        C600   1.402       .  A
C597        C604   1.407       .  A
N598        H613   1.045       .  S
N598        H614   1.046       .  S
C600        C601   1.406       .  A
C600        H605   1.084       .  S
C601        C602   1.410       .  A
C601        N606   1.437       .  S
C602        C603   1.402       .  A
C603        C604   1.402       .  A
C603        H607   1.084       .  S
C604        N608   1.438       .  S
N606        H609   1.046       .  S
N606        H610   1.045       .  S
N608        H611   1.046       .  S
N608        H612   1.045       .  S
C617        C618   1.419       .  A
C617        C622   1.405       .  A
C618        C619   1.402       .  A
C618        N623   1.438       .  S
C619        C620   1.397       .  A
C619        H624   1.084       .  S
C620        C625   1.469       .  S
C620        C621   1.406       .  A
C621        C622   1.399       .  A
C621        N626   1.439       .  S
C622        H627   1.083       .  S
N623        H643   1.046       .  S
N623        H644   1.046       .  S
C625        C628   1.399       .  A
C625        C632   1.406       .  A
N626        H641   1.046       .  S
N626        H642   1.045       .  S
C628        C629   1.400       .  A
C628        H633   1.084       .  S
C629        C630   1.415       .  A
C629        N634   1.438       .  S
C630        C631   1.406       .  A
C631        C632   1.400       .  A
C631        H635   1.083       .  S
C632        N636   1.438       .  S
N634        H637   1.046       .  S
N634        H638   1.046       .  S
N636        H639   1.045       .  S
N636        H640   1.046       .  S
C645        C646   1.414       .  A
C645        C650   1.406       .  A
C646        C647   1.402       .  A
C646        N651   1.438       .  S
C647        C648   1.401       .  A
C647        H652   1.084       .  S
C648        C653   1.474       .  S
C648        C649   1.406       .  A
C649        C650   1.401       .  A
C649        N654   1.438       .  S
C650        H655   1.084       .  S
N651        H671   1.046   1_556  S
N651        H672   1.046       .  S
C653        C656   1.401       .  A
C653        C660   1.406       .  A
N654        H669   1.046       .  S
N654        H670   1.046       .  S
C656        C657   1.400       .  A
C656        H661   1.084       .  S
C657        C658   1.413       .  A
C657        N662   1.438       .  S
C658        C659   1.406       .  A
C659        C660   1.402       .  A
C659        H663   1.083       .  S
C660        N664   1.437       .  S
N662        H665   1.046       .  S
N662        H666   1.046       .  S
N664        H667   1.046       .  S
N664        H668   1.046       .  S
C673        C674   1.412       .  A
C673        C678   1.405       .  A
C674        C675   1.399       .  A
C674        N679   1.439       .  S
C675        C676   1.400       .  A
C675        H680   1.084       .  S
C676        C681   1.478       .  S
C676        C677   1.409       .  A
C677        C678   1.408       .  A
C677        N682   1.437       .  S
C678        H683   1.084       .  S
N679        H699   1.046       .  S
N679        H700   1.046       .  S
C681        C684   1.401       .  A
C681        C688   1.406       .  A
N682        H697   1.045       .  S
N682        H698   1.046       .  S
C684        C685   1.407       .  A
C684        H689   1.084       .  S
C685        C686   1.418       .  A
C685        N690   1.438       .  S
C686        C687   1.406       .  A
C687        C688   1.401       .  A
C687        H691   1.083       .  S
C688        N692   1.438       .  S
N690        H693   1.046       .  S
N690        H694   1.046       .  S
N692        H695   1.046       .  S
N692        H696   1.045       .  S
C701        C702   1.414       .  A
C701        C706   1.406       .  A
C702        C703   1.403       .  A
C702        N707   1.438       .  S
C703        C704   1.402       .  A
C703        H708   1.084       .  S
C704        C709   1.481       .  S
C704        C705   1.409       .  A
C705        C706   1.402       .  A
C705        N710   1.438       .  S
C706        H711   1.084       .  S
N707        H727   1.046       .  S
N707        H728   1.046       .  S
C709        C712   1.403       .  A
C709        C716   1.410       .  A
N710        H725   1.046       .  S
N710        H726   1.046       .  S
C712        C713   1.403       .  A
C712        H717   1.084       .  S
C713        C714   1.412       .  A
C713        N718   1.438       .  S
C714        C715   1.404       .  A
C715        C716   1.402       .  A
C715        H719   1.084       .  S
C716        N720   1.438       .  S
N718        H721   1.046       .  S
N718        H722   1.046       .  S
N720        H723   1.046       .  S
N720        H724   1.045       .  S
C729        C730   1.417       .  A
C729        C734   1.407       .  A
C730        C731   1.405       .  A
C730        N735   1.437       .  S
C731        C732   1.398       .  A
C731        H736   1.084       .  S
C732        C737   1.467       .  S
C732        C733   1.404       .  A
C733        C734   1.398       .  A
C733        N738   1.439       .  S
C734        H739   1.083       .  S
N735        H755   1.045       .  S
N735        H756   1.046       .  S
C737        C740   1.398       .  A
C737        C744   1.404       .  A
N738        H753   1.046       .  S
N738        H754   1.045       .  S
C740        C741   1.402       .  A
C740        H745   1.084       .  S
C741        C742   1.417       .  A
C741        N746   1.438       .  S
C742        C743   1.407       .  A
C743        C744   1.401       .  A
C743        H747   1.083       .  S
C744        N748   1.438       .  S
N746        H749   1.046       .  S
N746        H750   1.045       .  S
N748        H751   1.046       .  S
N748        H752   1.046       .  S
C757        C758   1.414       .  A
C757        C762   1.406       .  A
C758        C759   1.403       .  A
C758        N763   1.438       .  S
C759        C760   1.400       .  A
C759        H764   1.084       .  S
C760        C765   1.476       .  S
C760        C761   1.408       .  A
C761        C762   1.403       .  A
C761        N766   1.438       .  S
C762        H767   1.083       .  S
N763        H783   1.046       .  S
N763        H784   1.046       .  S
C765        C768   1.399       .  A
C765        C772   1.408       .  A
N766        H781   1.046       .  S
N766        H782   1.045       .  S
C768        C769   1.405       .  A
C768        H773   1.084       .  S
C769        C770   1.418       .  A
C769        N774   1.438       .  S
C770        C771   1.405       .  A
C771        C772   1.401       .  A
C771        H775   1.083       .  S
C772        N776   1.438       .  S
N774        H777   1.046       .  S
N774        H778   1.046       .  S
N776        H779   1.045       .  S
N776        H780   1.046       .  S
C785        C786   1.420       .  A
C785        C790   1.406       .  A
C786        C787   1.404       .  A
C786        N791   1.438       .  S
C787        C788   1.396       .  A
C787        H792   1.084       .  S
C788        C793   1.470       .  S
C788        C789   1.406       .  A
C789        C790   1.400       .  A
C789        N794   1.438       .  S
C790        H795   1.083       .  S
N791        H811   1.046       .  S
N791        H812   1.046       .  S
C793        C796   1.397       .  A
C793        C800   1.406       .  A
N794        H809   1.045       .  S
N794        H810   1.046       .  S
C796        C797   1.400       .  A
C796        H801   1.084       .  S
C797        C798   1.416       .  A
C797        N802   1.438       .  S
C798        C799   1.407       .  A
C799        C800   1.405       .  A
C799        H803   1.084       .  S
C800        N804   1.438       .  S
N802        H805   1.046       .  S
N802        H806   1.045       .  S
N804        H807   1.046       .  S
N804        H808   1.045       .  S
C813        C814   1.416       .  A
C813        C818   1.404       .  A
C814        C815   1.403       .  A
C814        N819   1.438       .  S
C815        C816   1.400       .  A
C815        H820   1.084       .  S
C816        C821   1.476       .  S
C816        C817   1.408       .  A
C817        C818   1.403       .  A
C817        N822   1.438       .  S
C818        H823   1.084       .  S
N819        H839   1.046       .  S
N819        H840   1.046       .  S
C821        C824   1.403       .  A
C821        C828   1.407       .  A
N822        H837   1.046       .  S
N822        H838   1.045       .  S
C824        C825   1.406       .  A
C824        H829   1.084       .  S
C825        C826   1.412       .  A
C825        N830   1.437       .  S
C826        C827   1.404       .  A
C827        C828   1.399       .  A
C827        H831   1.084       .  S
C828        N832   1.439       .  S
N830        H833   1.046       .  S
N830        H834   1.045       .  S
N832        H835   1.046       .  S
N832        H836   1.046       .  S
C841        C842   1.417       .  A
C841        C846   1.407       .  A
C842        C843   1.403       .  A
C842        N847   1.438       .  S
C843        C844   1.399       .  A
C843        H848   1.084       .  S
C844        C849   1.469       .  S
C844        C845   1.404       .  A
C845        C846   1.398       .  A
C845        N850   1.438       .  S
C846        H851   1.083       .  S
N847        H867   1.045       .  S
N847        H868   1.046       .  S
C849        C852   1.398       .  A
C849        C856   1.405       .  A
N850        H865   1.046       .  S
N850        H866   1.046       .  S
C852        C853   1.397       .  A
C852        H857   1.084       .  S
C853        C854   1.415       .  A
C853        N858   1.439       .  S
C854        C855   1.406       .  A
C855        C856   1.403       .  A
C855        H859   1.083       .  S
C856        N860   1.437       .  S
N858        H861   1.046       .  S
N858        H862   1.046       .  S
N860        H863   1.046       .  S
N860        H864   1.046       .  S
C869        C870   1.419       .  A
C869        C874   1.408       .  A
C870        C871   1.404       .  A
C870        N875   1.438       .  S
C871        C872   1.398       .  A
C871        H876   1.084       .  S
C872        C877   1.469       .  S
C872        C873   1.403       .  A
C873        C874   1.401       .  A
C873        N878   1.438       .  S
C874        H879   1.083       .  S
N875        H895   1.046       .  S
N875        H896   1.046       .  S
C877        C880   1.397       .  A
C877        C884   1.406       .  A
N878        H893   1.045       .  S
N878        H894   1.046       .  S
C880        C881   1.399       .  A
C880        H885   1.084       .  S
C881        C882   1.414       .  A
C881        N886   1.439       .  S
C882        C883   1.405       .  A
C883        C884   1.405       .  A
C883        H887   1.084       .  S
C884        N888   1.437       .  S
N886        H889   1.046       .  S
N886        H890   1.045       .  S
N888        H891   1.046       .  S
N888        H892   1.045       .  S
C897        C898   1.418       .  A
C897        C902   1.407       .  A
C898        C899   1.406       .  A
C898        N903   1.438       .  S
C899        C900   1.400       .  A
C899        H904   1.084       .  S
C900        C905   1.479       .  S
C900        C901   1.407       .  A
C901        C902   1.402       .  A
C901        N906   1.438       .  S
C902        H907   1.083       .  S
N903        H923   1.046       .  S
N903        H924   1.046       .  S
C905        C908   1.399       .  A
C905        C912   1.407       .  A
N906        H921   1.046       .  S
N906        H922   1.045       .  S
C908        C909   1.402       .  A
C908        H913   1.084       .  S
C909        C910   1.419       .  A
C909        N914   1.438       .  S
C910        C911   1.408       .  A
C911        C912   1.406       .  A
C911        H915   1.083       .  S
C912        N916   1.437       .  S
N914        H917   1.046       .  S
N914        H918   1.046       .  S
N916        H919   1.045       .  S
N916        H920   1.046       .  S
C925        C926   1.417       .  A
C925        C930   1.406       .  A
C926        C927   1.404       .  A
C926        N931   1.438       .  S
C927        C928   1.400       .  A
C927        H932   1.084       .  S
C928        C933   1.480       .  S
C928        C929   1.409       .  A
C929        C930   1.402       .  A
C929        N934   1.438       .  S
C930        H935   1.083       .  S
N931        H951   1.045       .  S
N931        H952   1.046       .  S
C933        C936   1.401       .  A
C933        C940   1.411       .  A
N934        H949   1.046       .  S
N934        H950   1.045       .  S
C936        C937   1.402       .  A
C936        H941   1.084       .  S
C937        C938   1.413       .  A
C937        N942   1.439       .  S
C938        C939   1.402       .  A
C939        C940   1.404       .  A
C939        H943   1.084       .  S
C940        N944   1.438       .  S
N942        H945   1.045       .  S
N942        H946   1.046       .  S
N944        H947   1.045       .  S
N944        H948   1.046       .  S
C953        C954   1.416       .  A
C953        C958   1.405       .  A
C954        C955   1.405       .  A
C954        N959   1.438       .  S
C955        C956   1.398       .  A
C955        H960   1.084       .  S
C956        C961   1.468       .  S
C956        C957   1.406       .  A
C957        C958   1.399       .  A
C957        N962   1.439       .  S
C958        H963   1.083       .  S
N959        H979   1.046       .  S
N959        H980   1.046       .  S
C961        C964   1.398       .  A
C961        C968   1.405       .  A
N962        H977   1.045       .  S
N962        H978   1.045       .  S
C964        C965   1.403       .  A
C964        H969   1.084       .  S
C965        C966   1.416       .  A
C965        N970   1.438       .  S
C966        C967   1.407       .  A
C967        C968   1.400       .  A
C967        H971   1.083       .  S
C968        N972   1.439       .  S
N970        H973   1.046       .  S
N970        H974   1.046       .  S
N972        H975   1.046       .  S
N972        H976   1.045       .  S
C981        C982   1.417       .  A
C981        C986   1.409       .  A
C982        C983   1.407       .  A
C982        N987   1.437       .  S
C983        C984   1.400       .  A
C983        H988   1.084       .  S
C984        C989   1.475       .  S
C984        C985   1.404       .  A
C985        C986   1.403       .  A
C985        N990   1.438       .  S
C986        H991   1.083       .  S
N987       H1007   1.045       .  S
N987       H1008   1.046       .  S
C989        C992   1.399       .  A
C989        C996   1.407       .  A
N990       H1005   1.046       .  S
N990       H1006   1.045       .  S
C992        C993   1.403       .  A
C992        H997   1.084       .  S
C993        C994   1.414       .  A
C993        N998   1.438   1_655  S
C994        C995   1.405       .  A
C995        C996   1.407       .  A
C995        H999   1.084       .  S
C996       N1000   1.437       .  S
N998       H1001   1.046       .  S
N998       H1002   1.045       .  S
N1000      H1003   1.046       .  S
N1000      H1004   1.045       .  S
C1009      C1010   1.411       .  A
C1009      C1014   1.405       .  A
C1010      C1011   1.397       .  A
C1010      N1015   1.433       .  S
C1011      C1012   1.401       .  A
C1011      H1016   1.084       .  S
C1012      C1017   1.473       .  S
C1012      C1013   1.408       .  A
C1013      C1014   1.399       .  A
C1013      N1018   1.438       .  S
C1014      H1019   1.083       .  S
N1015      H1035   1.046       .  S
N1015      H1036   1.046       .  S
C1017      C1020   1.402       .  A
C1017      C1024   1.407       .  A
N1018      H1033   1.046       .  S
N1018      H1034   1.045       .  S
C1020      C1021   1.401       .  A
C1020      H1025   1.084       .  S
C1021      C1022   1.412       .  A
C1021      N1026   1.438       .  S
C1022      C1023   1.406       .  A
C1023      C1024   1.398       .  A
C1023      H1027   1.083       .  S
C1024      N1028   1.438       .  S
N1026      H1029   1.046       .  S
N1026      H1030   1.046       .  S
N1028      H1031   1.046       .  S
N1028      H1032   1.045       .  S
C1037      C1038   1.409       .  A
C1037      C1042   1.402       .  A
C1038      C1039   1.404       .  A
C1038      N1043   1.438       .  S
C1039      C1040   1.403       .  A
C1039      H1044   1.084       .  S
C1040      C1045   1.483       .  S
C1040      C1041   1.411       .  A
C1041      C1042   1.407       .  A
C1041      N1046   1.437       .  S
C1042      H1047   1.084       .  S
N1043      H1063   1.046       .  S
N1043      H1064   1.046       .  S
C1045      C1048   1.403       .  A
C1045      C1052   1.407       .  A
N1046      H1061   1.046       .  S
N1046      H1062   1.045       .  S
C1048      C1049   1.409       .  A
C1048      H1053   1.084       .  S
C1049      C1050   1.416       .  A
C1049      N1054   1.437       .  S
C1050      C1051   1.408       .  A
C1051      C1052   1.401       .  A
C1051      H1055   1.083       .  S
C1052      N1056   1.438       .  S
N1054      H1057   1.046       .  S
N1054      H1058   1.046       .  S
N1056      H1059   1.046       .  S
N1056      H1060   1.045       .  S
C1065      C1066   1.417       .  A
C1065      C1070   1.408       .  A
C1066      C1067   1.408       .  A
C1066      N1071   1.438       .  S
C1067      C1068   1.401       .  A
C1067      H1072   1.084       .  S
C1068      C1073   1.478       .  S
C1068      C1069   1.406       .  A
C1069      C1070   1.402       .  A
C1069      N1074   1.438       .  S
C1070      H1075   1.083       .  S
N1071      H1091   1.046       .  S
N1071      H1092   1.046       .  S
C1073      C1076   1.400       .  A
C1073      C1080   1.406       .  A
N1074      H1089   1.046       .  S
N1074      H1090   1.045       .  S
C1076      C1077   1.408       .  A
C1076      H1081   1.084       .  S
C1077      C1078   1.418       .  A
C1077      N1082   1.438       .  S
C1078      C1079   1.408       .  A
C1079      C1080   1.403       .  A
C1079      H1083   1.083       .  S
C1080      N1084   1.438       .  S
N1082      H1085   1.046       .  S
N1082      H1086   1.046       .  S
N1084      H1087   1.045       .  S
N1084      H1088   1.046       .  S
C1093      C1094   1.412       .  A
C1093      C1098   1.404       .  A
C1094      C1095   1.408       .  A
C1094      N1099   1.437       .  S
C1095      C1096   1.401       .  A
C1095      H1100   1.084       .  S
C1096      C1101   1.470       .  S
C1096      C1097   1.406       .  A
C1097      C1098   1.398       .  A
C1097      N1102   1.439       .  S
C1098      H1103   1.084       .  S
N1099      H1119   1.045       .  S
N1099      H1120   1.046       .  S
C1101      C1104   1.397       .  A
C1101      C1108   1.406       .  A
N1102      H1117   1.046       .  S
N1102      H1118   1.045       .  S
C1104      C1105   1.401       .  A
C1104      H1109   1.084       .  S
C1105      C1106   1.418       .  A
C1105      N1110   1.438       .  S
C1106      C1107   1.407       .  A
C1107      C1108   1.405       .  A
C1107      H1111   1.083       .  S
C1108      N1112   1.438       .  S
N1110      H1113   1.046       .  S
N1110      H1114   1.046       .  S
N1112      H1115   1.046       .  S
N1112      H1116   1.045       .  S
C1121      C1122   1.415       .  A
C1121      C1126   1.407       .  A
C1122      C1123   1.408       .  A
C1122      N1127   1.437       .  S
C1123      C1124   1.401       .  A
C1123      H1128   1.084       .  S
C1124      C1129   1.473       .  S
C1124      C1125   1.404       .  A
C1125      C1126   1.400       .  A
C1125      N1130   1.438       .  S
C1126      H1131   1.084       .  S
N1127      H1147   1.045       .  S
N1127      H1148   1.046       .  S
C1129      C1132   1.397       .  A
C1129      C1136   1.405       .  A
N1130      H1145   1.046       .  S
N1130      H1146   1.045       .  S
C1132      C1133   1.402       .  A
C1132      H1137   1.084       .  S
C1133      C1134   1.420       .  A
C1133      N1138   1.438       .  S
C1134      C1135   1.409       .  A
C1135      C1136   1.406       .  A
C1135      H1139   1.083       .  S
C1136      N1140   1.438       .  S
N1138      H1141   1.046       .  S
N1138      H1142   1.046       .  S
N1140      H1143   1.045       .  S
N1140      H1144   1.045       .  S
C1149      C1150   1.416       .  A
C1149      C1154   1.408       .  A
C1150      C1151   1.400       .  A
C1150      N1155   1.438       .  S
C1151      C1152   1.398       .  A
C1151      H1156   1.084       .  S
C1152      C1157   1.465       .  S
C1152      C1153   1.403       .  A
C1153      C1154   1.398       .  A
C1153      N1158   1.438       .  S
C1154      H1159   1.083       .  S
N1155      H1175   1.046       .  S
N1155      H1176   1.046       .  S
C1157      C1160   1.398       .  A
C1157      C1164   1.404       .  A
N1158      H1173   1.045       .  S
N1158      H1174   1.046       .  S
C1160      C1161   1.400       .  A
C1160      H1165   1.084       .  S
C1161      C1162   1.417       .  A
C1161      N1166   1.438       .  S
C1162      C1163   1.406       .  A
C1163      C1164   1.398       .  A
C1163      H1167   1.083       .  S
C1164      N1168   1.438       .  S
N1166      H1169   1.046       .  S
N1166      H1170   1.046   1_556  S
N1168      H1171   1.046       .  S
N1168      H1172   1.045       .  S
C1177      C1178   1.417       .  A
C1177      C1182   1.405       .  A
C1178      C1179   1.404       .  A
C1178      N1183   1.438       .  S
C1179      C1180   1.400       .  A
C1179      H1184   1.084       .  S
C1180      C1185   1.472       .  S
C1180      C1181   1.406       .  A
C1181      C1182   1.398       .  A
C1181      N1186   1.438       .  S
C1182      H1187   1.083       .  S
N1183      H1203   1.046       .  S
N1183      H1204   1.046       .  S
C1185      C1188   1.399       .  A
C1185      C1192   1.407       .  A
N1186      H1201   1.046       .  S
N1186      H1202   1.046       .  S
C1188      C1189   1.401       .  A
C1188      H1193   1.084       .  S
C1189      C1190   1.413       .  A
C1189      N1194   1.438       .  S
C1190      C1191   1.406       .  A
C1191      C1192   1.402       .  A
C1191      H1195   1.084       .  S
C1192      N1196   1.438       .  S
N1194      H1197   1.046       .  S
N1194      H1198   1.046       .  S
N1196      H1199   1.046       .  S
N1196      H1200   1.046       .  S
C1205      C1206   1.417       .  A
C1205      C1210   1.406       .  A
C1206      C1207   1.403       .  A
C1206      N1211   1.438       .  S
C1207      C1208   1.398       .  A
C1207      H1212   1.084       .  S
C1208      C1213   1.472       .  S
C1208      C1209   1.406       .  A
C1209      C1210   1.403       .  A
C1209      N1214   1.438       .  S
C1210      H1215   1.083       .  S
N1211      H1231   1.045       .  S
N1211      H1232   1.046       .  S
C1213      C1216   1.399       .  A
C1213      C1220   1.404       .  A
N1214      H1229   1.045       .  S
N1214      H1230   1.046       .  S
C1216      C1217   1.407       .  A
C1216      H1221   1.084       .  S
C1217      C1218   1.418       .  A
C1217      N1222   1.438       .  S
C1218      C1219   1.407       .  A
C1219      C1220   1.399       .  A
C1219      H1223   1.083       .  S
C1220      N1224   1.438       .  S
N1222      H1225   1.046       .  S
N1222      H1226   1.046       .  S
N1224      H1227   1.046       .  S
N1224      H1228   1.045       .  S
C1233      C1234   1.413       .  A
C1233      C1238   1.406       .  A
C1234      C1235   1.400       .  A
C1234      N1239   1.438       .  S
C1235      C1236   1.399       .  A
C1235      H1240   1.084       .  S
C1236      C1241   1.472       .  S
C1236      C1237   1.406       .  A
C1237      C1238   1.406       .  A
C1237      N1242   1.437       .  S
C1238      H1243   1.084       .  S
N1239      H1259   1.045       .  S
N1239      H1260   1.046       .  S
C1241      C1244   1.399       .  A
C1241      C1248   1.404       .  A
N1242      H1257   1.046       .  S
N1242      H1258   1.045       .  S
C1244      C1245   1.405       .  A
C1244      H1249   1.084       .  S
C1245      C1246   1.417       .  A
C1245      N1250   1.437       .  S
C1246      C1247   1.409       .  A
C1247      C1248   1.401       .  A
C1247      H1251   1.083       .  S
C1248      N1252   1.438       .  S
N1250      H1253   1.046       .  S
N1250      H1254   1.045       .  S
N1252      H1255   1.046       .  S
N1252      H1256   1.046       .  S
C1261      C1262   1.416       .  A
C1261      C1266   1.406       .  A
C1262      C1263   1.405       .  A
C1262      N1267   1.438       .  S
C1263      C1264   1.402       .  A
C1263      H1268   1.084       .  S
C1264      C1269   1.478       .  S
C1264      C1265   1.407       .  A
C1265      C1266   1.400       .  A
C1265      N1270   1.438       .  S
C1266      H1271   1.083       .  S
N1267      H1287   1.046       .  S
N1267      H1288   1.046       .  S
C1269      C1272   1.401       .  A
C1269      C1276   1.407       .  A
N1270      H1285   1.046       .  S
N1270      H1286   1.046       .  S
C1272      C1273   1.401       .  A
C1272      H1277   1.084       .  S
C1273      C1274   1.415       .  A
C1273      N1278   1.438       .  S
C1274      C1275   1.408       .  A
C1275      C1276   1.404       .  A
C1275      H1279   1.083       .  S
C1276      N1280   1.438       .  S
N1278      H1281   1.048       .  S
N1278      H1282   1.043       .  S
N1280      H1283   1.046       .  S
N1280      H1284   1.045       .  S
C1289      C1290   1.415       .  A
C1289      C1294   1.405       .  A
C1290      C1291   1.403       .  A
C1290      N1295   1.438       .  S
C1291      C1292   1.399       .  A
C1291      H1296   1.084       .  S
C1292      C1297   1.473       .  S
C1292      C1293   1.407       .  A
C1293      C1294   1.405       .  A
C1293      N1298   1.438       .  S
C1294      H1299   1.084       .  S
N1295      H1315   1.046       .  S
N1295      H1316   1.046       .  S
C1297      C1300   1.401       .  A
C1297      C1304   1.404       .  A
N1298      H1313   1.046       .  S
N1298      H1314   1.045       .  S
C1300      C1301   1.409       .  A
C1300      H1305   1.084       .  S
C1301      C1302   1.418       .  A
C1301      N1306   1.437       .  S
C1302      C1303   1.407       .  A
C1303      C1304   1.398       .  A
C1303      H1307   1.083       .  S
C1304      N1308   1.439       .  S
N1306      H1309   1.046       .  S
N1306      H1310   1.046       .  S
N1308      H1311   1.045       .  S
N1308      H1312   1.045       .  S
C1317      C1318   1.415       .  A
C1317      C1322   1.405       .  A
C1318      C1319   1.400       .  A
C1318      N1323   1.439       .  S
C1319      C1320   1.399       .  A
C1319      H1324   1.084       .  S
C1320      C1325   1.471       .  S
C1320      C1321   1.406       .  A
C1321      C1322   1.402       .  A
C1321      N1326   1.437       .  S
C1322      H1327   1.084       .  S
N1323      H1343   1.046       .  S
N1323      H1344   1.046       .  S
C1325      C1328   1.400       .  A
C1325      C1332   1.404       .  A
N1326      H1341   1.046       .  S
N1326      H1342   1.046       .  S
C1328      C1329   1.402       .  A
C1328      H1333   1.084       .  S
C1329      C1330   1.416       .  A
C1329      N1334   1.438       .  S
C1330      C1331   1.407       .  A
C1331      C1332   1.400       .  A
C1331      H1335   1.083       .  S
C1332      N1336   1.438       .  S
N1334      H1337   1.046       .  S
N1334      H1338   1.045       .  S
N1336      H1339   1.045       .  S
N1336      H1340   1.046       .  S
C1345      C1346   1.415       .  A
C1345      C1350   1.407       .  A
C1346      C1347   1.402       .  A
C1346      N1351   1.438       .  S
C1347      C1348   1.402       .  A
C1347      H1352   1.084       .  S
C1348      C1353   1.477       .  S
C1348      C1349   1.407       .  A
C1349      C1350   1.400       .  A
C1349      N1354   1.438       .  S
C1350      H1355   1.083       .  S
N1351      H1371   1.046       .  S
N1351      H1372   1.046       .  S
C1353      C1356   1.402       .  A
C1353      C1360   1.408       .  A
N1354      H1369   1.046       .  S
N1354      H1370   1.045       .  S
C1356      C1357   1.403       .  A
C1356      H1361   1.084       .  S
C1357      C1358   1.415       .  A
C1357      N1362   1.438       .  S
C1358      C1359   1.406       .  A
C1359      C1360   1.399       .  A
C1359      H1363   1.083       .  S
C1360      N1364   1.439       .  S
N1362      H1365   1.046       .  S
N1362      H1366   1.046       .  S
N1364      H1367   1.046       .  S
N1364      H1368   1.046       .  S
C1373      C1374   1.417       .  A
C1373      C1378   1.408       .  A
C1374      C1375   1.401       .  A
C1374      N1379   1.438       .  S
C1375      C1376   1.398       .  A
C1375      H1380   1.084       .  S
C1376      C1381   1.471       .  S
C1376      C1377   1.405       .  A
C1377      C1378   1.404       .  A
C1377      N1382   1.437       .  S
C1378      H1383   1.083       .  S
N1379      H1399   1.046       .  S
N1379      H1400   1.046       .  S
C1381      C1384   1.400       .  A
C1381      C1388   1.404       .  A
N1382      H1397   1.045       .  S
N1382      H1398   1.046       .  S
C1384      C1385   1.407       .  A
C1384      H1389   1.084       .  S
C1385      C1386   1.416       .  A
C1385      N1390   1.437       .  S
C1386      C1387   1.407       .  A
C1387      C1388   1.399       .  A
C1387      H1391   1.083       .  S
C1388      N1392   1.438       .  S
N1390      H1393   1.046       .  S
N1390      H1394   1.045       .  S
N1392      H1395   1.046       .  S
N1392      H1396   1.045       .  S
C1401      C1402   1.410       .  A
C1401      C1406   1.403       .  A
C1402      C1403   1.404       .  A
C1402      N1407   1.437       .  S
C1403      C1404   1.403       .  A
C1403      H1408   1.084       .  S
C1404      C1409   1.473       .  S
C1404      C1405   1.407       .  A
C1405      C1406   1.397       .  A
C1405      N1410   1.438       .  S
C1406      H1411   1.084       .  S
N1407      H1427   1.046       .  S
N1407      H1428   1.046       .  S
C1409      C1412   1.400       .  A
C1409      C1416   1.407       .  A
N1410      H1425   1.046       .  S
N1410      H1426   1.045       .  S
C1412      C1413   1.399       .  A
C1412      H1417   1.084       .  S
C1413      C1414   1.413       .  A
C1413      N1418   1.438       .  S
C1414      C1415   1.405       .  A
C1415      C1416   1.403       .  A
C1415      H1419   1.084       .  S
C1416      N1420   1.438       .  S
N1418      H1421   1.046       .  S
N1418      H1422   1.046       .  S
N1420      H1423   1.045       .  S
N1420      H1424   1.046       .  S
C1429      C1430   1.415       .  A
C1429      C1434   1.406       .  A
C1430      C1431   1.399       .  A
C1430      N1435   1.438       .  S
C1431      C1432   1.397       .  A
C1431      H1436   1.084       .  S
C1432      C1437   1.462       .  S
C1432      C1433   1.404       .  A
C1433      C1434   1.398       .  A
C1433      N1438   1.438       .  S
C1434      H1439   1.083       .  S
N1435      H1455   1.046       .  S
N1435      H1456   1.046       .  S
C1437      C1440   1.399       .  A
C1437      C1444   1.405       .  A
N1438      H1453   1.046       .  S
N1438      H1454   1.046       .  S
C1440      C1441   1.403       .  A
C1440      H1445   1.084       .  S
C1441      C1442   1.412       .  A
C1441      N1446   1.438       .  S
C1442      C1443   1.402       .  A
C1443      C1444   1.395       .  A
C1443      H1447   1.084       .  S
C1444      N1448   1.439       .  S
N1446      H1449   1.046       .  S
N1446      H1450   1.046       .  S
N1448      H1451   1.046       .  S
N1448      H1452   1.046       .  S
C1457      C1458   1.414       .  A
C1457      C1462   1.403       .  A
C1458      C1459   1.404       .  A
C1458      N1463   1.438       .  S
C1459      C1460   1.399       .  A
C1459      H1464   1.084       .  S
C1460      C1465   1.471       .  S
C1460      C1461   1.408       .  A
C1461      C1462   1.400       .  A
C1461      N1466   1.439       .  S
C1462      H1467   1.084       .  S
N1463      H1483   1.046       .  S
N1463      H1484   1.046       .  S
C1465      C1468   1.399       .  A
C1465      C1472   1.407       .  A
N1466      H1481   1.046       .  S
N1466      H1482   1.046       .  S
C1468      C1469   1.400       .  A
C1468      H1473   1.084       .  S
C1469      C1470   1.415       .  A
C1469      N1474   1.439       .  S
C1470      C1471   1.405       .  A
C1471      C1472   1.402       .  A
C1471      H1475   1.084       .  S
C1472      N1476   1.438       .  S
N1474      H1477   1.046       .  S
N1474      H1478   1.046       .  S
N1476      H1479   1.045       .  S
N1476      H1480   1.046       .  S
C1485      C1486   1.417       .  A
C1485      C1490   1.406       .  A
C1486      C1487   1.400       .  A
C1486      N1491   1.438       .  S
C1487      C1488   1.399       .  A
C1487      H1492   1.084       .  S
C1488      C1493   1.471       .  S
C1488      C1489   1.406       .  A
C1489      C1490   1.399       .  A
C1489      N1494   1.438       .  S
C1490      H1495   1.083       .  S
N1491      H1511   1.046       .  S
N1491      H1512   1.046       .  S
C1493      C1496   1.399       .  A
C1493      C1500   1.406       .  A
N1494      H1509   1.046       .  S
N1494      H1510   1.046       .  S
C1496      C1497   1.399       .  A
C1496      H1501   1.084       .  S
C1497      C1498   1.416       .  A
C1497      N1502   1.438       .  S
C1498      C1499   1.407       .  A
C1499      C1500   1.400       .  A
C1499      H1503   1.083       .  S
C1500      N1504   1.438       .  S
N1502      H1505   1.046       .  S
N1502      H1506   1.045       .  S
N1504      H1507   1.046       .  S
N1504      H1508   1.045       .  S
C1513      C1514   1.417       .  A
C1513      C1518   1.406       .  A
C1514      C1515   1.400       .  A
C1514      N1519   1.438       .  S
C1515      C1516   1.397       .  A
C1515      H1520   1.084       .  S
C1516      C1521   1.467       .  S
C1516      C1517   1.406       .  A
C1517      C1518   1.399       .  A
C1517      N1522   1.438       .  S
C1518      H1523   1.083       .  S
N1519      H1539   1.046       .  S
N1519      H1540   1.046       .  S
C1521      C1524   1.398       .  A
C1521      C1528   1.405       .  A
N1522      H1537   1.046       .  S
N1522      H1538   1.045       .  S
C1524      C1525   1.402       .  A
C1524      H1529   1.084       .  S
C1525      C1526   1.417       .  A
C1525      N1530   1.438       .  S
C1526      C1527   1.407       .  A
C1527      C1528   1.397       .  A
C1527      H1531   1.083       .  S
C1528      N1532   1.439       .  S
N1530      H1533   1.046       .  S
N1530      H1534   1.046       .  S
N1532      H1535   1.045       .  S
N1532      H1536   1.046       .  S
C1541      C1542   1.417       .  A
C1541      C1546   1.409       .  A
C1542      C1543   1.400       .  A
C1542      N1547   1.438       .  S
C1543      C1544   1.397       .  A
C1543      H1548   1.084       .  S
C1544      C1549   1.472       .  S
C1544      C1545   1.406       .  A
C1545      C1546   1.407       .  A
C1545      N1550   1.438       .  S
C1546      H1551   1.083       .  S
N1547      H1567   1.046       .  S
N1547      H1568   1.046       .  S
C1549      C1552   1.400       .  A
C1549      C1556   1.405       .  A
N1550      H1565   1.045       .  S
N1550      H1566   1.044       .  S
C1552      C1553   1.406       .  A
C1552      H1557   1.084       .  S
C1553      C1554   1.416       .  A
C1553      N1558   1.438       .  S
C1554      C1555   1.408       .  A
C1555      C1556   1.401       .  A
C1555      H1559   1.083       .  S
C1556      N1560   1.439       .  S
N1558      H1561   1.046       .  S
N1558      H1562   1.045       .  S
N1560      H1563   1.045       .  S
N1560      H1564   1.045       .  S
C1569      C1570   1.418       .  A
C1569      C1574   1.407       .  A
C1570      C1571   1.403       .  A
C1570      N1575   1.438       .  S
C1571      C1572   1.399       .  A
C1571      H1576   1.084       .  S
C1572      C1577   1.475       .  S
C1572      C1573   1.407       .  A
C1573      C1574   1.403       .  A
C1573      N1578   1.438       .  S
C1574      H1579   1.083       .  S
N1575      H1595   1.046       .  S
N1575      H1596   1.046       .  S
C1577      C1580   1.399       .  A
C1577      C1584   1.407       .  A
N1578      H1593   1.045       .  S
N1578      H1594   1.046       .  S
C1580      C1581   1.405       .  A
C1580      H1585   1.084       .  S
C1581      C1582   1.419       .  A
C1581      N1586   1.438       .  S
C1582      C1583   1.406       .  A
C1583      C1584   1.400       .  A
C1583      H1587   1.083       .  S
C1584      N1588   1.438       .  S
N1586      H1589   1.046       .  S
N1586      H1590   1.046       .  S
N1588      H1591   1.046       .  S
N1588      H1592   1.045       .  S
C1597      C1598   1.411       .  A
C1597      C1602   1.404       .  A
C1598      C1599   1.401       .  A
C1598      N1603   1.437       .  S
C1599      C1600   1.400       .  A
C1599      H1604   1.084       .  S
C1600      C1605   1.477       .  S
C1600      C1601   1.409       .  A
C1601      C1602   1.407       .  A
C1601      N1606   1.437       .  S
C1602      H1607   1.084       .  S
N1603      H1623   1.045       .  S
N1603      H1624   1.046       .  S
C1605      C1608   1.401       .  A
C1605      C1612   1.406       .  A
N1606      H1621   1.045       .  S
N1606      H1622   1.046       .  S
C1608      C1609   1.406       .  A
C1608      H1613   1.084       .  S
C1609      C1610   1.416       .  A
C1609      N1614   1.438       .  S
C1610      C1611   1.407       .  A
C1611      C1612   1.400       .  A
C1611      H1615   1.083       .  S
C1612      N1616   1.438       .  S
N1614      H1617   1.046       .  S
N1614      H1618   1.046       .  S
N1616      H1619   1.046       .  S
N1616      H1620   1.045       .  S
C1625      C1626   1.413       .  A
C1625      C1630   1.407       .  A
C1626      C1627   1.403       .  A
C1626      N1631   1.437       .  S
C1627      C1628   1.400       .  A
C1627      H1632   1.084       .  S
C1628      C1633   1.473       .  S
C1628      C1629   1.405       .  A
C1629      C1630   1.404       .  A
C1629      N1634   1.437       .  S
C1630      H1635   1.084       .  S
N1631      H1651   1.044       .  S
N1631      H1652   1.045       .  S
C1633      C1636   1.399       .  A
C1633      C1640   1.405       .  A
N1634      H1649   1.046       .  S
N1634      H1650   1.046       .  S
C1636      C1637   1.404       .  A
C1636      H1641   1.084       .  S
C1637      C1638   1.416       .  A
C1637      N1642   1.438       .  S
C1638      C1639   1.407       .  A
C1639      C1640   1.403       .  A
C1639      H1643   1.083       .  S
C1640      N1644   1.437       .  S
N1642      H1645   1.046       .  S
N1642      H1646   1.045       .  S
N1644      H1647   1.046       .  S
N1644      H1648   1.046       .  S
C1653      C1654   1.417       .  A
C1653      C1658   1.406       .  A
C1654      C1655   1.402       .  A
C1654      N1659   1.438       .  S
C1655      C1656   1.397       .  A
C1655      H1660   1.084       .  S
C1656      C1661   1.473       .  S
C1656      C1657   1.407       .  A
C1657      C1658   1.406       .  A
C1657      N1662   1.438       .  S
C1658      H1663   1.084       .  S
N1659      H1679   1.045       .  S
N1659      H1680   1.046       .  S
C1661      C1664   1.400       .  A
C1661      C1668   1.405       .  A
N1662      H1677   1.046       .  S
N1662      H1678   1.045       .  S
C1664      C1665   1.408       .  A
C1664      H1669   1.084       .  S
C1665      C1666   1.418       .  A
C1665      N1670   1.437       .  S
C1666      C1667   1.407       .  A
C1667      C1668   1.399       .  A
C1667      H1671   1.083       .  S
C1668      N1672   1.439       .  S
N1670      H1673   1.046       .  S
N1670      H1674   1.046   1_655  S
N1672      H1675   1.046       .  S
N1672      H1676   1.045       .  S
