geometry optimzed in LAMMPS
_audit_creation_date              2020-12-01 
_audit_creation_method            'lammps2cif' 
_symmetry_space_group_name_H-M    'P1' 
_symmetry_Int_Tables_number       1 
_symmetry_cell_setting            triclinic 
loop_ 
_symmetry_equiv_pos_as_xyz 
  x,y,z 
_cell_length_a                    43.83689556 
_cell_length_b                    43.42694896551021 
_cell_length_c                    43.53912272214668 
_cell_angle_alpha                 90.44994802057427 
_cell_angle_beta                  90.18381494609133 
_cell_angle_gamma                 90.19831611590119 
loop_ 
_atom_site_label 
_atom_site_type_symbol 
_atom_site_fract_x 
_atom_site_fract_y 
_atom_site_fract_z 
_atom_site_charge 
O1          O  0.41620925  0.00185446  0.20094491    -0.75600
O2          O  0.45290498  0.99778443  0.16431206    -0.54500
C3          C  0.42484853  0.99982911  0.17268090     0.78200
O4          O  0.50061061  0.08792109  0.30262198    -0.60200
O5          O  0.50375782  0.05043737  0.33896286    -0.53200
C6          C  0.50171960  0.07866043  0.33067943     0.70200
O7          O  0.49752121  0.08693440  0.19888662    -0.74700
O8          O  0.00016231  0.04867960  0.16424749    -0.55300
C9          C  0.49865417  0.07666704  0.17112763     0.76200
O10         O  0.41842472  0.00093633  0.30448914    -0.59900
O11         O  0.45501445  0.50160071  0.33792473    -0.53000
C12         C  0.42841297  0.00183418  0.33235151     0.72800
Zr13       Zr  0.43918063  0.99955016  0.25246205     2.54700
O14         O  0.39560868  0.03409992  0.25314402    -0.80400
O15         O  0.40386157  0.45487207  0.25347677    -0.93800
Zr16       Zr  0.50225841  0.06595465  0.25049095     2.64700
O17         O  0.46715308  0.10930487  0.24913177    -0.98800
O18         O  0.04754183  0.09855704  0.25178523    -0.80900
O19         O  0.46934396  0.03271088  0.22186611    -0.84200
O20         O  0.47058300  0.03411871  0.28103003    -2.18900
O21         O  0.99991251  0.41598583  0.30502890    -0.67600
O22         O  0.50127782  0.45499118  0.33997389    -0.52200
C23         C  0.99937913  0.42640388  0.33296540     0.71200
O24         O  0.08563777  0.49735346  0.19615641    -0.60500
O25         O  0.04531599  0.99413300  0.16170964    -0.52500
C26         C  0.07512650  0.49495358  0.16850952     0.73000
O27         O  0.08892313  0.50083059  0.29916874    -0.71900
O28         O  0.05201489  0.50030430  0.33625345    -0.50600
C29         C  0.08004283  0.50018090  0.32726314     0.74400
O30         O  0.00105402  0.41373085  0.20011692    -0.67200
O31         O  0.99869833  0.45124618  0.16352953    -0.54400
C32         C  0.99973923  0.42302629  0.17210051     0.72700
Zr33       Zr  0.00128288  0.43589729  0.25198860     2.77500
O34         O  0.04364257  0.39973540  0.25315741    -0.98000
O35         O  0.45929942  0.39819088  0.25167910    -0.78800
Zr36       Zr  0.06526319  0.50031561  0.24859374     2.70100
O37         O  0.10300759  0.45932281  0.24877120    -0.80100
O38         O  0.10530209  0.03594488  0.24507596    -0.99100
Zr39       Zr  0.99885139  0.99943363  0.19167765     2.21500
Zr40       Zr  0.50291557  0.50118106  0.30916122     2.11100
O41         O  0.03434307  0.46861784  0.28029463    -2.47800
O42         O  0.03257573  0.46709260  0.22035583    -0.79800
O43         O  0.46962698  0.46795040  0.28105670    -0.72000
O44         O  0.03330923  0.03157480  0.21989617    -2.33000
O45         O  0.46873231  0.46589404  0.22102685    -2.29200
O46         O  0.03526099  0.03245015  0.28006084    -0.73800
H47         H  0.45794692  0.04671030  0.29414293     0.78200
H48         H  0.04589836  0.04348389  0.20620281     0.79300
H49         H  0.04698703  0.45622065  0.29346302     0.81500
H50         H  0.45612442  0.45282719  0.20814584     0.79100
H51         H  0.06013044  0.09177498  0.23417016     0.42200
H52         H  0.10289852  0.04950678  0.26328874     0.41100
H53         H  0.09898149  0.44759422  0.26774041     0.40800
H54         H  0.05340992  0.40288569  0.27348432     0.38700
H55         H  0.46911230  0.37799616  0.24804518     0.41900
H56         H  0.40795627  0.44250936  0.23475839     0.36600
H57         H  0.40250911  0.05233461  0.24151888     0.42800
H58         H  0.44899559  0.10213370  0.26050738     0.39200
H59         H  0.03377095  0.37926052  0.25453449     0.44100
H60         H  0.38312954  0.46330464  0.25053916     0.42800
H61         H  0.47647873  0.12535545  0.26248209     0.43000
H62         H  0.12417864  0.02418132  0.24916160     0.43300
O63         O  0.50260512  0.19652110  0.08653010    -0.75600
O64         O  0.00044152  0.16095654  0.04870570    -0.54500
C65         C  0.50145819  0.16863539  0.07634576     0.78200
O66         O  0.41594708  0.30363596  0.00098247    -0.60200
O67         O  0.45454819  0.33886501  0.00082668    -0.53200
C68         C  0.42610297  0.33160149  0.00022979     0.70200
O69         O  0.41348904  0.19913926  0.00517365    -0.74700
O70         O  0.45113178  0.16348411  0.00733177    -0.55300
C71         C  0.42283549  0.17115449  0.00746581     0.76200
O72         O  0.50316858  0.29923670  0.08869915    -0.59900
O73         O  0.50156047  0.33575861  0.05117902    -0.53000
C74         C  0.50231002  0.32714524  0.07941858     0.72800
Zr75       Zr  0.50354381  0.24851249  0.06559239     2.54700
O76         O  0.46804819  0.24771149  0.10848008    -0.80400
O77         O  0.04300333  0.24956280  0.10395734    -0.93800
Zr78       Zr  0.43597937  0.25072993  0.00401920     2.64700
O79         O  0.40152699  0.25358557  0.04777226    -0.98800
O80         O  0.39411107  0.25024310  0.46458023    -0.80900
O81         O  0.46871481  0.22006284  0.03485508    -0.84200
O82         O  0.46961989  0.27923309  0.03600257    -2.18900
O83         O  0.08444792  0.30096142  0.49983993    -0.67600
O84         O  0.04744483  0.33787786  0.00133277    -0.52200
C85         C  0.07485653  0.32908078  0.49947650     0.71200
O86         O  0.99741869  0.20003058  0.41503183    -0.60500
O87         O  0.99579934  0.16318457  0.45229581    -0.52500
C88         C  0.99676523  0.17200858  0.42415195     0.73000
O89         O  0.99678679  0.30305472  0.41675951    -0.71900
O90         O  0.50198446  0.33969390  0.45734627    -0.50600
C91         C  0.99668550  0.33099056  0.42707188     0.74400
O92         O  0.08478703  0.19714418  0.00024172    -0.67200
O93         O  0.04678135  0.16173322  0.00351019    -0.54400
C94         C  0.07321436  0.16761360  0.49994516     0.72700
Zr95       Zr  0.06430365  0.24969598  0.00135271     2.77500
O96         O  0.09640824  0.24429063  0.45540524    -0.98000
O97         O  0.10321757  0.25290416  0.04121359    -0.78800
Zr98       Zr  0.99580940  0.25085245  0.43791548     2.70100
O99         O  0.03009164  0.25125253  0.39401378    -0.80100
O100        O  0.46200689  0.24957475  0.39776642    -0.99100
Zr101      Zr  0.99954745  0.19086796  0.00199692     2.21500
Zr102      Zr  0.50073804  0.30839422  0.00215827     2.11100
O103        O  0.03033851  0.27937267  0.46890029    -2.47800
O104        O  0.02913229  0.21984156  0.46775973    -0.79800
O105        O  0.03349238  0.27960443  0.03486209    -0.72000
O106        O  0.46715654  0.22184843  0.46909515    -2.33000
O107        O  0.03329025  0.21972397  0.03428067    -2.29200
O108        O  0.46757923  0.28138422  0.46984081    -0.73800
H109        H  0.45777289  0.29261393  0.04916857     0.78200
H110        H  0.45452191  0.20894560  0.45601924     0.79300
H111        H  0.04242548  0.29266330  0.45602453     0.81500
H112        H  0.04591248  0.20639393  0.04658210     0.79100
H113        H  0.40193201  0.23744460  0.44743111     0.42200
H114        H  0.44452255  0.26128855  0.40609596     0.41100
H115        H  0.01639061  0.25214174  0.37592349     0.40800
H116        H  0.08895985  0.25995148  0.44081871     0.38700
H117        H  0.09365859  0.24337949  0.05938656     0.41900
H118        H  0.05690282  0.26607016  0.09696059     0.36600
H119        H  0.45256784  0.23206258  0.10260621     0.41000
H120        H  0.41455037  0.25975003  0.06539822     0.39200
H121        H  0.11635943  0.25215567  0.46277896     0.44100
H122        H  0.05429771  0.23022999  0.10002375     0.42800
H123        H  0.38847725  0.27171730  0.04394530     0.43000
H124        H  0.47025583  0.26249568  0.38108151     0.43300
O125        O  0.29974726  0.08663280  0.00102358    -0.75600
O126        O  0.33498155  0.04868585  0.00644058    -0.54500
C127        C  0.32727118  0.07723870  0.00459346     0.78200
O128        O  0.19729492  0.49933105  0.08465694    -0.60200
O129        O  0.16353703  0.99462746  0.04781562    -0.53200
C130        C  0.17041473  0.99578008  0.07656921     0.70200
O131        O  0.30097582  0.50371342  0.08510372    -0.74700
O132        O  0.33653081  0.49942569  0.04724570    -0.55300
C133        C  0.32886968  0.00014782  0.07881640     0.76200
O134        O  0.19828387  0.08447825  0.99609597    -0.59900
O135        O  0.16326789  0.04630277  0.00202956    -0.53000
C136        C  0.17064944  0.07485853  0.99920495     0.72800
Zr137      Zr  0.24956725  0.06289704  0.00020341     2.54700
O138        O  0.24867641  0.09825571  0.04364967    -0.80400
O139        O  0.24563080  0.10374668  0.46045215    -0.93800
Zr140      Zr  0.24912364  0.50124965  0.06347367     2.64700
O141        O  0.25059467  0.03882091  0.10554809    -0.98800
O142        O  0.24945356  0.45911796  0.09983393    -0.80900
O143        O  0.27899562  0.03188473  0.03366983    -0.84200
O144        O  0.22001245  0.03164419  0.03322679    -2.18900
O145        O  0.20182537  0.99946474  0.41064645    -0.67600
O146        O  0.16512895  0.99793014  0.44784577    -0.52200
C147        C  0.17313516  0.49805581  0.42068369     0.71200
O148        O  0.30258899  0.41415549  0.00103012    -0.60500
O149        O  0.33732545  0.45325482  0.99815665    -0.52500
C150        C  0.32994777  0.42420085  0.49954157     0.73000
O151        O  0.19790802  0.41427173  0.00167798    -0.71900
O152        O  0.16250884  0.45226310  0.99672053    -0.50600
C153        C  0.17054907  0.42253814  0.49864202     0.74400
O154        O  0.30473638  0.00030789  0.41390259    -0.67200
O155        O  0.33835587  0.50154903  0.45313376    -0.54400
C156        C  0.33141035  0.50079429  0.42431505     0.72700
Zr157      Zr  0.25239619  0.99992710  0.43397693     2.77500
O158        O  0.25365260  0.46143994  0.39304097    -0.98000
O159        O  0.25255928  0.04292418  0.39837963    -0.78800
Zr160      Zr  0.25029075  0.43487258  0.99993860     2.70100
O161        O  0.25091747  0.39816110  0.45599230    -0.80100
O162        O  0.25012018  0.39351411  0.03742866    -0.99100
Zr163      Zr  0.30807207  0.50058335  0.99950295     2.21500
Zr164      Zr  0.19173338  0.99832380  0.99998406     2.11100
O165        O  0.22160964  0.46607115  0.46517594    -2.47800
O166        O  0.28040744  0.46667961  0.46682655    -0.79800
O167        O  0.22060724  0.03133672  0.46524411    -0.72000
O168        O  0.27918208  0.46801139  0.03254105    -2.33000
O169        O  0.28004934  0.03312659  0.46717642    -2.29200
O170        O  0.22022000  0.46735739  0.03179170    -0.73800
H171        H  0.20664136  0.04432305  0.04554928     0.78200
H172        H  0.29235373  0.45583821  0.04543199     0.79300
H173        H  0.20888186  0.45321653  0.45223002     0.81500
H174        H  0.29324869  0.04614275  0.45511817     0.79100
H175        H  0.24447303  0.44063837  0.08732938     0.42200
H176        H  0.23256670  0.39804268  0.05095520     0.41100
H177        H  0.25795669  0.41042129  0.43828159     0.40800
H178        H  0.23371476  0.45068802  0.39366350     0.38700
H179        H  0.23363524  0.05440685  0.40302327     0.41900
H180        H  0.23629701  0.12161747  0.47106079     0.36600
H181        H  0.25963973  0.08733302  0.06019765     0.42800
H182        H  0.23290626  0.05213649  0.10095342     0.39200
H183        H  0.25292049  0.47373616  0.37399169     0.44100
H184        H  0.22974650  0.09651220  0.44584124     0.42800
H185        H  0.24479390  0.02782497  0.12450752     0.43000
H186        H  0.24371721  0.37501388  0.02558029     0.43300
C187        C  0.40522980  0.38335105  0.01771581    -0.02100
C188        C  0.40320303  0.35701986  0.99839623     0.07600
C189        C  0.37823843  0.35507562  0.47682683    -0.02200
C190        C  0.35428046  0.37658678  0.47778798    -0.02200
C191        C  0.35521915  0.40148372  0.49879954     0.07700
C192        C  0.38158433  0.40541706  0.01803260    -0.02400
Br193      Br  0.38459970  0.44015734  0.04590667    -0.01000
Br194      Br  0.44032551  0.38990898  0.04386579    -0.01000
Br195      Br  0.32108472  0.37273948  0.44873033    -0.01000
Br196      Br  0.37814282  0.32382719  0.44502265    -0.01000
C197        C  0.40103901  0.12100959  0.48374918    -0.02100
C198        C  0.39923562  0.14610705  0.00959733     0.07600
C199        C  0.37036186  0.15190738  0.02317916    -0.02200
C200        C  0.34733536  0.12909717  0.02264407    -0.02200
C201        C  0.35187237  0.10098351  0.00658936     0.07700
C202        C  0.37801854  0.09826640  0.48337285    -0.02400
Br203      Br  0.38199455  0.06372732  0.45547050    -0.01000
Br204      Br  0.43601204  0.11590469  0.45721226    -0.01000
Br205      Br  0.31037087  0.13638678  0.04569850    -0.01000
Br206      Br  0.36236061  0.18989338  0.04529866    -0.01000
C207        C  0.14774138  0.37266014  0.47958502    -0.02100
C208        C  0.14547356  0.39924025  0.49834551     0.07600
C209        C  0.11885872  0.40499688  0.01710397    -0.02200
C210        C  0.09565430  0.38250037  0.01717336    -0.02200
C211        C  0.09807608  0.35428925  0.49780922     0.07700
C212        C  0.12397360  0.35076414  0.47886020    -0.02400
Br213      Br  0.12510523  0.31848457  0.44818223    -0.01000
Br214      Br  0.18232652  0.36688809  0.45273139    -0.01000
Br215      Br  0.05982572  0.38981536  0.04194592    -0.01000
Br216      Br  0.11418418  0.44112378  0.04279563    -0.01000
C217        C  0.11496761  0.09196085  0.48227875    -0.02100
C218        C  0.14581911  0.09848706  0.00050766     0.07600
C219        C  0.15080570  0.12702095  0.01572863    -0.02200
C220        C  0.12790333  0.14974486  0.01637229    -0.02200
C221        C  0.09621677  0.14219072  0.50049508     0.07700
C222        C  0.09284615  0.11565226  0.48166999    -0.02400
Br223      Br  0.05869700  0.11205906  0.45365901    -0.01000
Br224      Br  0.10704593  0.05462576  0.45911718    -0.01000
Br225      Br  0.13653351  0.18760880  0.03859604    -0.01000
Br226      Br  0.18814958  0.13489020  0.03832033    -0.01000
C227        C  0.38180407  0.98016597  0.40317200    -0.02100
C228        C  0.35675606  0.50171157  0.40130996     0.07600
C229        C  0.35602230  0.52312530  0.37699636    -0.02200
C230        C  0.37893690  0.52304426  0.35424284    -0.02200
C231        C  0.40502404  0.00251055  0.35718736     0.07700
C232        C  0.40509876  0.98035987  0.38079431    -0.02400
Br233      Br  0.43576923  0.94867382  0.38140151    -0.01000
Br234      Br  0.38231726  0.94912205  0.43467290    -0.01000
Br235      Br  0.37788498  0.55379575  0.32238970    -0.01000
Br236      Br  0.32443729  0.55396859  0.37548690    -0.01000
C237        C  0.13527044  0.47061591  0.38725993    -0.02100
C238        C  0.14941973  0.49826572  0.39681022     0.07600
C239        C  0.14075697  0.02749929  0.38369629    -0.02200
C240        C  0.11804897  0.02801646  0.36085077    -0.02200
C241        C  0.10416034  0.49928096  0.35088933     0.07700
C242        C  0.11306836  0.47104072  0.36380420    -0.02400
Br243      Br  0.09740885  0.43289720  0.34695079    -0.01000
Br244      Br  0.14753461  0.43215593  0.40523655    -0.01000
Br245      Br  0.10825156  0.06605178  0.34116964    -0.01000
Br246      Br  0.15971528  0.06536610  0.39767431    -0.01000
C247        C  0.11708587  0.51157976  0.09341286    -0.02100
C248        C  0.14484603  0.99373241  0.09920403     0.07600
C249        C  0.14765693  0.97530055  0.12570845    -0.02200
C250        C  0.12426746  0.97470167  0.14790255    -0.02200
C251        C  0.09772357  0.49280663  0.14275318     0.07700
C252        C  0.09324443  0.50912589  0.11500904    -0.02400
Br253      Br  0.05441693  0.52768623  0.10522579    -0.01000
Br254      Br  0.11243107  0.53970814  0.05954235    -0.01000
Br255      Br  0.12932410  0.94851403  0.18330880    -0.01000
Br256      Br  0.18247883  0.94865362  0.13093752    -0.01000
C257        C  0.35002001  0.48208448  0.12574093    -0.02100
C258        C  0.35347931  0.00014850  0.10273251     0.07600
C259        C  0.38042646  0.01768280  0.09881363    -0.02200
C260        C  0.40431265  0.01632862  0.12062848    -0.02200
C261        C  0.40064510  0.99954894  0.14820389     0.07700
C262        C  0.37265749  0.48188383  0.14883413    -0.02400
Br263      Br  0.36505189  0.45785859  0.18509182    -0.01000
Br264      Br  0.31508095  0.45513172  0.12976361    -0.01000
Br265      Br  0.44202674  0.03743861  0.11161805    -0.01000
Br266      Br  0.38429154  0.04545346  0.06455584    -0.01000
C267        C  0.47556675  0.12249603  0.35742240    -0.02100
C268        C  0.50066062  0.10229854  0.35520006     0.07600
C269        C  0.02557413  0.12402528  0.35809309    -0.02200
C270        C  0.02463184  0.14563334  0.38220883    -0.02200
C271        C  0.99814171  0.14833305  0.40013634     0.07700
C272        C  0.47478475  0.14495899  0.38085637    -0.02400
Br273      Br  0.43893480  0.17008880  0.38651831    -0.01000
Br274      Br  0.44168969  0.11881031  0.32930907    -0.01000
Br275      Br  0.05945030  0.17188135  0.39055990    -0.01000
Br276      Br  0.05895636  0.12520126  0.32962635    -0.01000
C277        C  0.01572872  0.38226533  0.40726787    -0.02100
C278        C  0.99623353  0.35642194  0.40402561     0.07600
C279        C  0.47858588  0.35682466  0.38192779    -0.02200
C280        C  0.47941968  0.37836527  0.35787155    -0.02200
C281        C  0.99709439  0.40349438  0.35854956     0.07700
C282        C  0.01462824  0.40656123  0.38587688    -0.02400
Br283      Br  0.03580846  0.44441330  0.39593886    -0.01000
Br284      Br  0.04649295  0.38332318  0.43909788    -0.01000
Br285      Br  0.45037232  0.37418089  0.32469755    -0.01000
Br286      Br  0.44518440  0.32786077  0.38401723    -0.01000
C287        C  0.47438027  0.36113660  0.11580167    -0.02100
C288        C  0.50220063  0.35089979  0.10338014     0.07600
C289        C  0.02629339  0.36213309  0.11608473    -0.02200
C290        C  0.02676738  0.38585969  0.13812984    -0.02200
C291        C  0.99926612  0.39926539  0.14795821     0.07700
C292        C  0.47434248  0.38506211  0.13769185    -0.02400
Br293      Br  0.43628374  0.40092282  0.15322733    -0.01000
Br294      Br  0.43691435  0.33975803  0.10578049    -0.01000
Br295      Br  0.06504624  0.39986885  0.15496956    -0.01000
Br296      Br  0.06350276  0.34101134  0.10522012    -0.01000
C297        C  0.02811776  0.12949832  0.10849609    -0.02100
C298        C  0.50083085  0.14403544  0.09939325     0.07600
C299        C  0.47263912  0.13312581  0.11028919    -0.02200
C300        C  0.47179996  0.11235401  0.13494583    -0.02200
C301        C  0.49915827  0.09986200  0.14648100     0.07700
C302        C  0.02818467  0.10787510  0.13248317    -0.02400
Br303      Br  0.06616972  0.09080574  0.14683411    -0.01000
Br304      Br  0.06551669  0.13939390  0.08745530    -0.01000
Br305      Br  0.43355609  0.10382150  0.15495364    -0.01000
Br306      Br  0.43525626  0.14699501  0.09146557    -0.01000
O307        O  0.41398677  0.00305321  0.69994812    -0.75600
O308        O  0.45084913  0.99911061  0.66334115    -0.54500
C309        C  0.42279482  0.00135260  0.67165537     0.78200
O310        O  0.50569043  0.08625231  0.80226127    -0.60200
O311        O  0.50403393  0.04852921  0.83843419    -0.53200
C312        C  0.50500687  0.07685987  0.83025954     0.70200
O313        O  0.49916370  0.08616145  0.69933032    -0.74700
O314        O  0.99946827  0.04897434  0.66450213    -0.55300
C315        C  0.49890649  0.07607075  0.67148931     0.76200
O316        O  0.41609936  0.00123010  0.80400877    -0.59900
O317        O  0.45625689  0.50356884  0.84030917    -0.53000
C318        C  0.42610246  0.00088814  0.83189546     0.72800
Zr319      Zr  0.43683486  0.00127644  0.75182014     2.54700
O320        O  0.39810698  0.04125642  0.75228033    -0.80400
O321        O  0.40312805  0.45550961  0.75753059    -0.93800
Zr322      Zr  0.50342595  0.06411221  0.75037833     2.64700
O323        O  0.46820760  0.10730243  0.75291356    -0.98800
O324        O  0.04168661  0.10470188  0.75090167    -0.80900
O325        O  0.46876043  0.03299521  0.72152593    -0.84200
O326        O  0.47011511  0.03382280  0.78075203    -2.18900
O327        O  0.00160744  0.41550275  0.80493262    -0.67600
O328        O  0.50107586  0.45556667  0.84086570    -0.52200
C329        C  0.00108186  0.42592056  0.83284578     0.71200
O330        O  0.08568900  0.49837399  0.69527020    -0.60500
O331        O  0.04801182  0.99759405  0.66161970    -0.52500
C332        C  0.07509547  0.49557278  0.66772358     0.73000
O333        O  0.09092313  0.50376208  0.79747785    -0.71900
O334        O  0.05447331  0.50092072  0.83487716    -0.50600
C335        C  0.08240177  0.50228118  0.82557448     0.74400
O336        O  0.00286128  0.41310659  0.70039167    -0.67200
O337        O  0.99944738  0.45036860  0.66365406    -0.54400
C338        C  0.00097973  0.42219417  0.67234077     0.72700
Zr339      Zr  0.00334864  0.43566898  0.75210956     2.77500
O340        O  0.04649039  0.40052144  0.75458715    -0.98000
O341        O  0.46146005  0.39712231  0.75197476    -0.78800
Zr342      Zr  0.06606853  0.50125363  0.74786692     2.70100
O343        O  0.10373812  0.46029221  0.74992605    -0.80100
O344        O  0.10635055  0.04157154  0.74289583    -0.99100
Zr345      Zr  0.00116170  0.99993553  0.69180186     2.21500
Zr346      Zr  0.50348393  0.50209662  0.81056818     2.11100
O347        O  0.03621774  0.46895017  0.78000100    -2.47800
O348        O  0.03400600  0.46710048  0.72003124    -0.79800
O349        O  0.47045128  0.46825397  0.78255073    -0.72000
O350        O  0.03387017  0.03396365  0.72003763    -2.33000
O351        O  0.46854569  0.46585861  0.72265853    -2.29200
O352        O  0.03663048  0.03471498  0.77993604    -0.73800
H353        H  0.45826039  0.04694095  0.79408915     0.78200
H354        H  0.04571643  0.04662342  0.70634226     0.79300
H355        H  0.04930090  0.45672784  0.79292345     0.81500
H356        H  0.45584716  0.45266128  0.70999583     0.79100
H357        H  0.05681855  0.09709074  0.73584282     0.42200
H358        H  0.10141963  0.05719752  0.75877344     0.41100
H359        H  0.12365697  0.47111648  0.75022248     0.40800
H360        H  0.03730517  0.38038755  0.75982799     0.38700
H361        H  0.47197398  0.37734103  0.75565416     0.41900
H362        H  0.40748520  0.44207643  0.73963809     0.36600
H363        H  0.40979878  0.06070918  0.75439220     0.42800
H364        H  0.45500087  0.10305064  0.77080667     0.39200
H365        H  0.05328704  0.39805956  0.73304393     0.44100
H366        H  0.38259462  0.46404623  0.75351892     0.42800
H367        H  0.48089329  0.12513129  0.75937922     0.43000
H368        H  0.12535404  0.03179355  0.75030143     0.43300
O369        O  0.49745125  0.19583241  0.58687012    -0.75600
O370        O  0.99935240  0.16027361  0.54829698    -0.54500
C371        C  0.49856039  0.16803156  0.57651561     0.78200
O372        O  0.41591944  0.30461589  0.49907042    -0.60200
O373        O  0.45462647  0.33963905  0.50060915    -0.53200
C374        C  0.42621692  0.33253460  0.49897391     0.70200
O375        O  0.41275463  0.20029931  0.50042260    -0.74700
O376        O  0.44995788  0.16387433  0.50326540    -0.55300
C377        C  0.42180215  0.17217665  0.50200497     0.76200
O378        O  0.49888382  0.29881224  0.59050258    -0.59900
O379        O  0.49885707  0.33559827  0.55317585    -0.53000
C380        C  0.49868038  0.32679950  0.58134757     0.72800
Zr381      Zr  0.49904758  0.24826477  0.56697750     2.54700
O382        O  0.46018872  0.24716051  0.60677036    -0.80400
O383        O  0.04648333  0.24679295  0.59870912    -0.93800
Zr384      Zr  0.43550887  0.25164970  0.50194540     2.64700
O385        O  0.40037664  0.25396359  0.54511020    -0.98800
O386        O  0.39439053  0.24935004  0.96686872    -0.80900
O387        O  0.46595021  0.22003428  0.53414058    -0.84200
O388        O  0.46736526  0.27979036  0.53588278    -2.18900
O389        O  0.08545078  0.30222111  0.00055355    -0.67600
O390        O  0.04661897  0.33678381  0.50018983    -0.52200
C391        C  0.07566299  0.33025517  0.00053829     0.71200
O392        O  0.00043775  0.19941523  0.91550076    -0.60500
O393        O  0.00019656  0.16325874  0.95341343    -0.52500
C394        C  0.00048533  0.17157831  0.92512652     0.73000
O395        O  0.99930278  0.30216823  0.91598269    -0.71900
O396        O  0.49949915  0.33807096  0.95524355    -0.50600
C397        C  0.99963685  0.33013189  0.92618627     0.74400
O398        O  0.08321724  0.19564986  0.49922453    -0.67200
O399        O  0.04477637  0.16019661  0.50073428    -0.54400
C400        C  0.07517991  0.16910847  0.00225425     0.72700
Zr401      Zr  0.06282971  0.24854101  0.49960644     2.77500
O402        O  0.10168109  0.24509795  0.96042058    -0.98000
O403        O  0.10489176  0.24940593  0.53619861    -0.78800
Zr404      Zr  0.99902332  0.25044670  0.93798593     2.70100
O405        O  0.03777470  0.25008054  0.89803679    -0.80100
O406        O  0.45259978  0.24608201  0.90404149    -0.99100
Zr407      Zr  0.99810342  0.19018586  0.50133001     2.21500
Zr408      Zr  0.50043902  0.30898568  0.50386559     2.11100
O409        O  0.03258689  0.27976208  0.96931465    -2.47800
O410        O  0.03155526  0.22016905  0.96912012    -0.79800
O411        O  0.03279239  0.27849626  0.53404933    -0.72000
O412        O  0.46583178  0.22026928  0.96993831    -2.33000
O413        O  0.03246132  0.21858742  0.53315194    -2.29200
O414        O  0.46632640  0.28027179  0.97019662    -0.73800
H415        H  0.45492887  0.29310265  0.54853875     0.78200
H416        H  0.45270005  0.20702214  0.95771215     0.79300
H417        H  0.04490041  0.29300131  0.95659959     0.81500
H418        H  0.04519830  0.20514816  0.54521835     0.79100
H419        H  0.40289839  0.23858594  0.94871358     0.42200
H420        H  0.43947921  0.26350494  0.91032918     0.41100
H421        H  0.05214825  0.26675200  0.90393501     0.40800
H422        H  0.09446214  0.25927640  0.94429427     0.38700
H423        H  0.12327988  0.24582865  0.52352906     0.41900
H424        H  0.03840249  0.24642181  0.61991343     0.36600
H425        H  0.47075895  0.23885284  0.62504053     0.41000
H426        H  0.41117129  0.24323948  0.56191065     0.39200
H427        H  0.12038015  0.25485476  0.96885260     0.44100
H428        H  0.05576602  0.26748831  0.59667744     0.42800
H429        H  0.40018292  0.27583910  0.55165676     0.43000
H430        H  0.46014822  0.25157273  0.88338594     0.43300
O431        O  0.29947273  0.08664743  0.49964229    -0.75600
O432        O  0.33568657  0.04913565  0.50262300    -0.54500
C433        C  0.32740377  0.07752329  0.50145260     0.78200
O434        O  0.19642260  0.49649861  0.58384065    -0.60200
O435        O  0.16266435  0.99522028  0.54426253    -0.53200
C436        C  0.16979447  0.99542843  0.57297910     0.70200
O437        O  0.29953346  0.50137511  0.58685828    -0.74700
O438        O  0.33536701  0.49744717  0.54924458    -0.55300
C439        C  0.32844525  0.00059397  0.57644767     0.76200
O440        O  0.19522953  0.08298936  0.49823882    -0.59900
O441        O  0.16073543  0.04374094  0.49807938    -0.53000
C442        C  0.16756149  0.07254834  0.49845742     0.72800
Zr443      Zr  0.24824960  0.06382319  0.49928519     2.54700
O444        O  0.24679490  0.10145074  0.54091431    -0.80400
O445        O  0.25275695  0.10255954  0.96112776    -0.93800
Zr446      Zr  0.24849658  0.49932173  0.56362775     2.64700
O447        O  0.24486604  0.03980814  0.60105477    -0.98800
O448        O  0.24964418  0.45724665  0.60007612    -0.80900
O449        O  0.27846591  0.03247788  0.53207010    -0.84200
O450        O  0.21916393  0.03083930  0.53083851    -2.18900
O451        O  0.20099961  0.00079827  0.91407345    -0.67600
O452        O  0.16430514  0.99880720  0.95122632    -0.52200
C453        C  0.17177550  0.49927543  0.92209178     0.71200
O454        O  0.30233984  0.41388985  0.50103663    -0.60500
O455        O  0.33724973  0.45283447  0.49814756    -0.52500
C456        C  0.33022362  0.42451805  0.99947979     0.73000
O457        O  0.19834717  0.41294330  0.50052435    -0.71900
O458        O  0.16294331  0.45094958  0.49644206    -0.50600
C459        C  0.17017123  0.42393968  0.99930068     0.74400
O460        O  0.30353335  0.99813440  0.91550551    -0.67200
O461        O  0.33685770  0.50308327  0.95189115    -0.54400
C462        C  0.32982782  0.50140260  0.92317336     0.72700
Zr463      Zr  0.25167972  0.99723677  0.93652042     2.77500
O464        O  0.24862810  0.45563528  0.89766989    -0.98000
O465        O  0.25332745  0.03525835  0.89582740    -0.78800
Zr466      Zr  0.25027409  0.43452767  0.49872830     2.70100
O467        O  0.24997593  0.39707644  0.95842468    -0.80100
O468        O  0.24848507  0.39358195  0.53656180    -0.99100
Zr469      Zr  0.30828775  0.49998491  0.50036356     2.21500
Zr470      Zr  0.19167910  0.99758090  0.49679556     2.11100
O471        O  0.22094099  0.46591344  0.96650475    -2.47800
O472        O  0.28016837  0.46620374  0.96699612    -0.79800
O473        O  0.22097946  0.03032990  0.96712120    -0.72000
O474        O  0.27892549  0.46682732  0.53230285    -2.33000
O475        O  0.28021962  0.03100979  0.96851621    -2.29200
O476        O  0.21990162  0.46620497  0.53083359    -0.73800
H477        H  0.20541930  0.04290786  0.54334125     0.78200
H478        H  0.29188661  0.45437420  0.54513590     0.79300
H479        H  0.20791025  0.45300546  0.95392387     0.81500
H480        H  0.29344565  0.04371000  0.95616468     0.79100
H481        H  0.24219444  0.43917806  0.58822872     0.42200
H482        H  0.25707909  0.37540292  0.52584608     0.41100
H483        H  0.24658179  0.40920471  0.93958879     0.40800
H484        H  0.24491734  0.46559401  0.87762943     0.38700
H485        H  0.24259580  0.05337194  0.90444847     0.41900
H486        H  0.24390399  0.12112308  0.97092059     0.36600
H487        H  0.24618159  0.08898197  0.55981906     0.42800
H488        H  0.24699974  0.02920170  0.62098710     0.39200
H489        H  0.26983514  0.44798225  0.89640545     0.44100
H490        H  0.23760274  0.09625894  0.94536270     0.42800
H491        H  0.26394310  0.05186844  0.59898683     0.43000
H492        H  0.26413695  0.39938172  0.55201140     0.43300
C493        C  0.40590104  0.38481905  0.51561264    -0.02100
C494        C  0.40346061  0.35799791  0.49695765     0.07600
C495        C  0.37874146  0.35487067  0.97727294    -0.02200
C496        C  0.35497225  0.37672757  0.97776238    -0.02200
C497        C  0.35571403  0.40171078  0.99877370     0.07700
C498        C  0.38135794  0.40567757  0.51748156    -0.02400
Br499      Br  0.38311043  0.43893957  0.54723850    -0.01000
Br500      Br  0.44308534  0.39475110  0.53751235    -0.01000
Br501      Br  0.32243794  0.37333403  0.94793686    -0.01000
Br502      Br  0.37947966  0.32390813  0.94517433    -0.01000
C503        C  0.40471580  0.11635303  0.99702107    -0.02100
C504        C  0.39795493  0.14766364  0.50233381     0.07600
C505        C  0.37174064  0.15088183  0.52100217    -0.02200
C506        C  0.34898824  0.12786662  0.52100664    -0.02200
C507        C  0.35180209  0.10149551  0.50199358     0.07700
C508        C  0.38057003  0.09524879  0.99315452    -0.02400
Br509      Br  0.38675292  0.05969714  0.96679727    -0.01000
Br510      Br  0.44521019  0.10213657  0.98670476    -0.01000
Br511      Br  0.31478305  0.13210834  0.54863780    -0.01000
Br512      Br  0.36715029  0.18601131  0.54811615    -0.01000
C513        C  0.14694472  0.37502755  0.97904762    -0.02100
C514        C  0.14524208  0.40077617  0.99892682     0.07600
C515        C  0.11825393  0.40425524  0.51512447    -0.02200
C516        C  0.09452977  0.38222362  0.51447991    -0.02200
C517        C  0.09857820  0.35549656  0.99899068     0.07700
C518        C  0.12334835  0.35302722  0.97849586    -0.02400
Br519      Br  0.12302020  0.32200832  0.94650518    -0.01000
Br520      Br  0.18053413  0.37059699  0.95077024    -0.01000
Br521      Br  0.05691353  0.39189258  0.53562052    -0.01000
Br522      Br  0.11305413  0.44080710  0.54012023    -0.01000
C523        C  0.11651449  0.09227570  0.98813023    -0.02100
C524        C  0.14203548  0.09552589  0.49999977     0.07600
C525        C  0.14448201  0.12137151  0.51989883    -0.02200
C526        C  0.12154479  0.14406862  0.52056355    -0.02200
C527        C  0.09869372  0.14389499  0.00333212     0.07700
C528        C  0.09265493  0.11386060  0.99142704    -0.02400
Br529      Br  0.05172679  0.10017638  0.98126414    -0.01000
Br530      Br  0.10883387  0.05495659  0.96469469    -0.01000
Br531      Br  0.12399172  0.17655480  0.55102049    -0.01000
Br532      Br  0.17792222  0.12483190  0.54872645    -0.01000
C533        C  0.37949754  0.97820084  0.90275239    -0.02100
C534        C  0.35532300  0.50241847  0.90046631     0.07600
C535        C  0.35385255  0.52193119  0.87463594    -0.02200
C536        C  0.37817849  0.52302662  0.85352263    -0.02200
C537        C  0.40270420  0.00123433  0.85696825     0.07700
C538        C  0.40293890  0.97893617  0.88052228    -0.02400
Br539      Br  0.43433429  0.94813458  0.88187236    -0.01000
Br540      Br  0.37804440  0.94502763  0.93193651    -0.01000
Br541      Br  0.37655596  0.55255465  0.82050991    -0.01000
Br542      Br  0.31908287  0.54833954  0.86819864    -0.01000
C543        C  0.13314890  0.47280294  0.88894283    -0.02100
C544        C  0.14825427  0.50007717  0.89806173     0.07600
C545        C  0.14636487  0.02896273  0.88154956    -0.02200
C546        C  0.12621670  0.02952581  0.85630619    -0.02200
C547        C  0.10668885  0.50111561  0.84889798     0.07700
C548        C  0.11279397  0.47323491  0.86392457    -0.02400
Br549      Br  0.09756729  0.43512572  0.84650720    -0.01000
Br550      Br  0.14142919  0.43470508  0.90969866    -0.01000
Br551      Br  0.12606323  0.06453729  0.82926915    -0.01000
Br552      Br  0.16921211  0.06544887  0.89279774    -0.01000
C553        C  0.11662703  0.51112371  0.59222677    -0.02100
C554        C  0.14467198  0.99446777  0.59600526     0.07600
C555        C  0.14697848  0.97497526  0.62172497    -0.02200
C556        C  0.12500461  0.97621416  0.64529214    -0.02200
C557        C  0.09760600  0.49341447  0.64207369     0.07700
C558        C  0.09349618  0.51041241  0.61472468    -0.02400
Br559      Br  0.05676626  0.53393293  0.60786465    -0.01000
Br560      Br  0.11154616  0.53779823  0.55722195    -0.01000
Br561      Br  0.12995366  0.94949667  0.68023949    -0.01000
Br562      Br  0.17907301  0.94458894  0.62379466    -0.01000
C563        C  0.34888907  0.47987305  0.62806311    -0.02100
C564        C  0.35291437  0.00064834  0.60036801     0.07600
C565        C  0.37880909  0.01994097  0.59766965    -0.02200
C566        C  0.40193081  0.01967004  0.62037008    -0.02200
C567        C  0.39886663  0.00124192  0.64694526     0.07700
C568        C  0.37177814  0.47978668  0.65104396    -0.02400
Br569      Br  0.36619389  0.45366057  0.68625067    -0.01000
Br570      Br  0.31430714  0.45251256  0.63215382    -0.01000
Br571      Br  0.43763515  0.04488538  0.61434854    -0.01000
Br572      Br  0.38250390  0.04783934  0.56343011    -0.01000
C573        C  0.47930340  0.10161459  0.87525113    -0.02100
C574        C  0.50424910  0.10048536  0.85481615     0.07600
C575        C  0.02795829  0.10613864  0.87556142    -0.02200
C576        C  0.02786611  0.13057640  0.89679289    -0.02200
C577        C  0.00101413  0.14737311  0.90164941     0.07700
C578        C  0.47661283  0.12624743  0.89610310    -0.02400
Br579      Br  0.43785379  0.13454782  0.91521247    -0.01000
Br580      Br  0.44835765  0.07002231  0.87486892    -0.01000
Br581      Br  0.06536396  0.14360690  0.91641735    -0.01000
Br582      Br  0.06296721  0.07989125  0.87331477    -0.01000
C583        C  0.01867275  0.38123964  0.90639133    -0.02100
C584        C  0.99910989  0.35547319  0.90324200     0.07600
C585        C  0.47866627  0.35473911  0.87860383    -0.02200
C586        C  0.47822657  0.37845997  0.85669622    -0.02200
C587        C  0.99899529  0.40292027  0.85834386     0.07700
C588        C  0.01707578  0.40573236  0.88531756    -0.02400
Br589      Br  0.03786462  0.44366475  0.89570247    -0.01000
Br590      Br  0.04914158  0.38265466  0.93853756    -0.01000
Br591      Br  0.44700059  0.37790622  0.82532872    -0.01000
Br592      Br  0.44953802  0.32146053  0.87484143    -0.01000
C593        C  0.47180368  0.36474810  0.61459552    -0.02100
C594        C  0.49907830  0.35057883  0.60526785     0.07600
C595        C  0.02742019  0.36278272  0.61456382    -0.02200
C596        C  0.02787456  0.38693708  0.63616955    -0.02200
C597        C  0.00034276  0.39818178  0.64838940     0.07700
C598        C  0.47283407  0.38930958  0.63576264    -0.02400
Br599      Br  0.43583959  0.41059481  0.64673918    -0.01000
Br600      Br  0.43305107  0.34805251  0.60123697    -0.01000
Br601      Br  0.06616642  0.40469305  0.64887661    -0.01000
Br602      Br  0.06510983  0.34475278  0.60035265    -0.01000
C603        C  0.02682452  0.13608095  0.61518006    -0.02100
C604        C  0.49848979  0.14333777  0.59956443     0.07600
C605        C  0.47129822  0.13628831  0.61517936    -0.02200
C606        C  0.47154967  0.11503461  0.63943989    -0.02200
C607        C  0.49869154  0.09941765  0.64698262     0.07700
C608        C  0.02668997  0.11455232  0.63917336    -0.02400
Br609      Br  0.06394830  0.10574174  0.66116032    -0.01000
Br610      Br  0.06439477  0.15575013  0.60348109    -0.01000
Br611      Br  0.43524612  0.10900273  0.66365347    -0.01000
Br612      Br  0.43371784  0.15591848  0.60315033    -0.01000
O613        O  0.41551674  0.50019653  0.19804799    -0.75600
O614        O  0.45266126  0.49583330  0.16192077    -0.54500
C615        C  0.42448785  0.49794814  0.16983476     0.78200
O616        O  0.50501264  0.58718459  0.30050742    -0.60200
O617        O  0.50479186  0.54974678  0.33698429    -0.53200
C618        C  0.50523905  0.57807991  0.32856559     0.70200
O619        O  0.50142197  0.58590841  0.19811355    -0.74700
O620        O  0.00092530  0.54839980  0.16345950    -0.55300
C621        C  0.50010179  0.57572313  0.17037375     0.76200
O622        O  0.41653204  0.49993436  0.30245259    -0.59900
O623        O  0.45690609  0.00246721  0.33991702    -0.53000
C624        C  0.42651011  0.50087787  0.33037969     0.72800
Zr625      Zr  0.43763393  0.49933738  0.25036218     2.54700
O626        O  0.39710323  0.53744415  0.24960918    -0.80400
O627        O  0.40742065  0.95364838  0.25513544    -0.93800
Zr628      Zr  0.50215613  0.56407784  0.24922473     2.64700
O629        O  0.46166006  0.60235605  0.24937826    -0.98800
O630        O  0.04097634  0.60463243  0.25003214    -0.80900
O631        O  0.46888838  0.53174203  0.22003956    -0.84200
O632        O  0.46974659  0.53296259  0.27960482    -2.18900
O633        O  0.99662089  0.91569344  0.30495452    -0.67600
O634        O  0.50285870  0.95662718  0.34138036    -0.52200
C635        C  0.99689115  0.92598591  0.33283079     0.71200
O636        O  0.08409304  0.99568799  0.19648577    -0.60500
O637        O  0.04652277  0.49470014  0.16178316    -0.52500
C638        C  0.07385569  0.99378216  0.16872582     0.73000
O639        O  0.08849354  0.00058047  0.29923529    -0.71900
O640        O  0.05188994  0.00119613  0.33661134    -0.50600
C641        C  0.07986351  0.00094889  0.32738274     0.74400
O642        O  0.99922964  0.91312689  0.20129746    -0.67200
O643        O  0.99734944  0.95039996  0.16444383    -0.54400
C644        C  0.99827507  0.92218381  0.17325070     0.72700
Zr645      Zr  0.99846425  0.93597788  0.25256666     2.77500
O646        O  0.03642171  0.89530660  0.25601081    -0.98000
O647        O  0.46760629  0.89487249  0.25150785    -0.78800
Zr648      Zr  0.06438830  0.99813660  0.24906365     2.70100
O649        O  0.09937022  0.95471967  0.25126828    -0.80100
O650        O  0.10322223  0.54115620  0.24487837    -0.99100
Zr651      Zr  0.99978605  0.49959560  0.19137715     2.21500
Zr652      Zr  0.50436757  0.00267610  0.31038226     2.11100
O653        O  0.03271544  0.96747500  0.28094892    -2.47800
O654        O  0.03076203  0.96598050  0.22077163    -0.79800
O655        O  0.47194485  0.96840809  0.28251944    -0.72000
O656        O  0.03321577  0.53282963  0.21953637    -2.33000
O657        O  0.47069042  0.96668766  0.22286447    -2.29200
O658        O  0.03489798  0.53371405  0.27954305    -0.73800
H659        H  0.45751716  0.54585935  0.29280980     0.78200
H660        H  0.04557618  0.54508141  0.20592583     0.79300
H661        H  0.04499113  0.95476825  0.29419535     0.81500
H662        H  0.45823862  0.95338614  0.21008845     0.79100
H663        H  0.05778578  0.59560976  0.23783266     0.42200
H664        H  0.10043755  0.55370687  0.26373001     0.41100
H665        H  0.09153479  0.94141480  0.26784154     0.40800
H666        H  0.02747953  0.87772398  0.24445248     0.38700
H667        H  0.44754197  0.90517185  0.25235660     0.41900
H668        H  0.41060645  0.94264309  0.23544105     0.36600
H669        H  0.40564958  0.55478765  0.23773045     0.42800
H670        H  0.44496494  0.59291623  0.26135245     0.39200
H671        H  0.05344995  0.90251581  0.24300703     0.44100
H672        H  0.38624555  0.96139361  0.25413262     0.42800
H673        H  0.46936184  0.61933145  0.26262994     0.43000
H674        H  0.12299422  0.53062937  0.24791623     0.43300
O675        O  0.50478166  0.69570624  0.08583272    -0.75600
O676        O  0.00018713  0.66121641  0.04834215    -0.54500
C677        C  0.50264503  0.66792186  0.07544545     0.78200
O678        O  0.41582795  0.80314890  0.00048070    -0.60200
O679        O  0.45441285  0.83851961  0.00002724    -0.53200
C680        C  0.42598268  0.83107673  0.99937465     0.70200
O681        O  0.41408008  0.69827168  0.00401772    -0.74700
O682        O  0.45141318  0.66198727  0.00331601    -0.55300
C683        C  0.42326173  0.67007206  0.00440181     0.76200
O684        O  0.50232949  0.79844014  0.08971279    -0.59900
O685        O  0.50193730  0.83528667  0.05243240    -0.53000
C686        C  0.50209291  0.82658759  0.08072076     0.72800
Zr687      Zr  0.50356002  0.74785516  0.06512832     2.54700
O688        O  0.46654618  0.74287600  0.10630617    -0.80400
O689        O  0.03918275  0.74851294  0.10486831    -0.93800
Zr690      Zr  0.43585221  0.75038290  0.00368181     2.64700
O691        O  0.40014932  0.75272254  0.04632771    -0.98800
O692        O  0.39411785  0.74584969  0.46544801    -0.80900
O693        O  0.46879473  0.71953844  0.03397136    -0.84200
O694        O  0.46960462  0.77882576  0.03593262    -2.18900
O695        O  0.08527302  0.79911244  0.49623576    -0.67600
O696        O  0.04715117  0.83736343  0.00063844    -0.52200
C697        C  0.07610006  0.82725874  0.49598994     0.71200
O698        O  0.99478719  0.70133664  0.41361762    -0.60500
O699        O  0.99388456  0.66409547  0.45051866    -0.52500
C700        C  0.99438178  0.67321369  0.42240233     0.73000
O701        O  0.99196558  0.80398431  0.41703868    -0.71900
O702        O  0.49967328  0.83850232  0.45681737    -0.50600
C703        C  0.99335945  0.83183784  0.42742713     0.74400
O704        O  0.08392573  0.69714651  0.00019496    -0.67200
O705        O  0.04599628  0.66177424  0.00346292    -0.54400
C706        C  0.07297244  0.66785123  0.49959844     0.72700
Zr707      Zr  0.06370312  0.74955971  0.00271558     2.77500
O708        O  0.09020254  0.74303409  0.44904162    -0.98000
O709        O  0.09867267  0.75240515  0.04619566    -0.78800
Zr710      Zr  0.99247539  0.75160114  0.43753237     2.70100
O711        O  0.02358828  0.75563202  0.39153288    -0.80100
O712        O  0.45515327  0.74705122  0.40386601    -0.99100
Zr713      Zr  0.99908772  0.69099332  0.00136142     2.21500
Zr714      Zr  0.50094833  0.80858716  0.00268863     2.11100
O715        O  0.02848780  0.77953180  0.46730069    -2.47800
O716        O  0.02694238  0.71981423  0.46549549    -0.79800
O717        O  0.03201685  0.77921639  0.03550717    -0.72000
O718        O  0.46660762  0.72033887  0.46905961    -2.33000
O719        O  0.03179431  0.71959632  0.03467453    -2.29200
O720        O  0.46682248  0.78017992  0.47027442    -0.73800
H721        H  0.45776777  0.79202339  0.04928531     0.78200
H722        H  0.45393839  0.70711623  0.45631706     0.79300
H723        H  0.04021909  0.79271152  0.45398866     0.81500
H724        H  0.04409366  0.70615824  0.04718187     0.79100
H725        H  0.39958206  0.72809692  0.45219347     0.42200
H726        H  0.44174715  0.76426236  0.41012479     0.41100
H727        H  0.04405175  0.74860882  0.39803127     0.40800
H728        H  0.08573889  0.76203407  0.43748517     0.38700
H729        H  0.09135860  0.73643873  0.06052179     0.41900
H730        H  0.05347385  0.76495066  0.09849253     0.36600
H731        H  0.44695979  0.73874550  0.09562266     0.41000
H732        H  0.40516871  0.77210521  0.05736297     0.39200
H733        H  0.11183884  0.74508158  0.45530073     0.44100
H734        H  0.05045359  0.72912351  0.10116629     0.42800
H735        H  0.38012940  0.75670483  0.03656867     0.43000
H736        H  0.46302986  0.75278523  0.38340185     0.43300
O737        O  0.29913470  0.58789847  0.99971736    -0.75600
O738        O  0.33460715  0.54969302  0.00287819    -0.54500
C739        C  0.32672631  0.57822128  0.00203795     0.78200
O740        O  0.19787640  0.99845722  0.08702254    -0.60200
O741        O  0.16255127  0.49633530  0.04575843    -0.53200
C742        C  0.16971582  0.49706173  0.07443028     0.70200
O743        O  0.30094939  0.00143307  0.08799879    -0.74700
O744        O  0.33688946  0.99852297  0.05040921    -0.55300
C745        C  0.32879241  0.50146539  0.07565633     0.76200
O746        O  0.19707004  0.58526971  0.99493235    -0.59900
O747        O  0.16250258  0.54674015  0.00098669    -0.53000
C748        C  0.16958259  0.57532734  0.99831171     0.72800
Zr749      Zr  0.24873982  0.56442071  0.99749410     2.54700
O750        O  0.24993084  0.60364010  0.03755900    -0.80400
O751        O  0.24907370  0.60618542  0.46289634    -0.93800
Zr752      Zr  0.24956274  0.99932944  0.06556737     2.64700
O753        O  0.24759391  0.54067459  0.10352064    -0.98800
O754        O  0.24976867  0.95751776  0.10238111    -0.80900
O755        O  0.27826789  0.53362053  0.03111479    -0.84200
O756        O  0.21955363  0.53330098  0.03105274    -2.18900
O757        O  0.20098018  0.49896734  0.41152146    -0.67600
O758        O  0.16444409  0.49749077  0.44885217    -0.52200
C759        C  0.17394663  0.99873796  0.41972066     0.71200
O760        O  0.30205228  0.91242957  0.00073179    -0.60500
O761        O  0.33721145  0.95136030  0.00048791    -0.52500
C762        C  0.32985088  0.92307688  0.49845027     0.73000
O763        O  0.19788846  0.91291532  0.00264795    -0.71900
O764        O  0.16271208  0.95121961  0.99823379    -0.50600
C765        C  0.17166911  0.92123019  0.49601111     0.74400
O766        O  0.30384906  0.49951549  0.41385354    -0.67200
O767        O  0.33918520  0.00094445  0.45326528    -0.54400
C768        C  0.33227044  0.00083526  0.42450995     0.72700
Zr769      Zr  0.25173960  0.49946672  0.43443194     2.77500
O770        O  0.25486502  0.96174485  0.39285977    -0.98000
O771        O  0.25139178  0.54241062  0.39884251    -0.78800
Zr772      Zr  0.25023063  0.93371833  0.00139064     2.70100
O773        O  0.25154898  0.89614233  0.45683081    -0.80100
O774        O  0.25030126  0.89362236  0.04018335    -0.99100
Zr775      Zr  0.30895529  0.99914325  0.00203951     2.21500
Zr776      Zr  0.19140176  0.49932086  0.99838976     2.11100
O777        O  0.22236229  0.96597286  0.46424220    -2.47800
O778        O  0.28108776  0.96702330  0.46617563    -0.79800
O779        O  0.22058503  0.53170729  0.46551952    -0.72000
O780        O  0.27955198  0.96627953  0.03434592    -2.33000
O781        O  0.27986175  0.53277128  0.46726329    -2.29200
O782        O  0.22034614  0.96607074  0.03339344    -0.73800
H783        H  0.20618380  0.54595520  0.04340355     0.78200
H784        H  0.29269499  0.95391514  0.04707902     0.79300
H785        H  0.20983252  0.95312877  0.45106374     0.81500
H786        H  0.29323032  0.54560463  0.45519920     0.79100
H787        H  0.25750056  0.93948519  0.09080463     0.42200
H788        H  0.25440817  0.87439213  0.02856234     0.41100
H789        H  0.25666262  0.90793014  0.43816496     0.40800
H790        H  0.23764613  0.94753780  0.39685396     0.38700
H791        H  0.24913671  0.56091339  0.41205766     0.41900
H792        H  0.26893475  0.60471554  0.45222546     0.36600
H793        H  0.24660322  0.59215185  0.05681234     0.42800
H794        H  0.22883709  0.55257447  0.09928473     0.39200
H795        H  0.24874916  0.97303198  0.37416085     0.44100
H796        H  0.25078323  0.62500763  0.47578325     0.42800
H797        H  0.24298886  0.52924301  0.12254983     0.43000
H798        H  0.26910974  0.89731790  0.05232200     0.43300
C799        C  0.40416105  0.88146910  0.01835687    -0.02100
C800        C  0.40302287  0.85626946  0.99761581     0.07600
C801        C  0.37875762  0.85394315  0.47578605    -0.02200
C802        C  0.35419348  0.87473293  0.47719218    -0.02200
C803        C  0.35487520  0.89988919  0.49810935     0.07700
C804        C  0.37987700  0.90263079  0.01974359    -0.02400
Br805      Br  0.38021908  0.93428537  0.05121994    -0.01000
Br806      Br  0.43888133  0.88761066  0.04505302    -0.01000
Br807      Br  0.31971257  0.86777418  0.45033789    -0.01000
Br808      Br  0.38119840  0.82495188  0.44194261    -0.01000
C809        C  0.40618362  0.61479697  0.49845298    -0.02100
C810        C  0.39951150  0.64536149  0.00582144     0.07600
C811        C  0.37306845  0.64934070  0.02412111    -0.02200
C812        C  0.35002777  0.62660713  0.02418148    -0.02200
C813        C  0.35139114  0.60155354  0.00341090     0.07700
C814        C  0.38189235  0.59408342  0.49350733    -0.02400
Br815      Br  0.38896436  0.55850969  0.46740960    -0.01000
Br816      Br  0.44709534  0.59952760  0.49164925    -0.01000
Br817      Br  0.31798484  0.62876127  0.05445013    -0.01000
Br818      Br  0.36903834  0.68429481  0.05152988    -0.01000
C819        C  0.15001048  0.87061458  0.47720999    -0.02100
C820        C  0.14694082  0.89756713  0.49529132     0.07600
C821        C  0.11825664  0.90431578  0.01711680    -0.02200
C822        C  0.09471887  0.88221459  0.01642600    -0.02200
C823        C  0.09974017  0.85222848  0.49424926     0.07700
C824        C  0.12683327  0.84797197  0.47693258    -0.02400
Br825      Br  0.13179893  0.81263943  0.45016564    -0.01000
Br826      Br  0.18519100  0.86521778  0.45102371    -0.01000
Br827      Br  0.05752750  0.89073458  0.03879233    -0.01000
Br828      Br  0.11335569  0.94022831  0.04304053    -0.01000
C829        C  0.11643152  0.59319677  0.48187990    -0.02100
C830        C  0.14459901  0.59859948  0.00015878     0.07600
C831        C  0.14986922  0.62722793  0.01501840    -0.02200
C832        C  0.12718128  0.65005549  0.01552744    -0.02200
C833        C  0.09628686  0.64262847  0.50073113     0.07700
C834        C  0.09319214  0.61575595  0.48232492    -0.02400
Br835      Br  0.05764237  0.60989218  0.45652139    -0.01000
Br836      Br  0.11093015  0.55698881  0.45638443    -0.01000
Br837      Br  0.13695464  0.68865431  0.03605012    -0.01000
Br838      Br  0.18733178  0.63513049  0.03738959    -0.01000
C839        C  0.38151659  0.48097845  0.40306959    -0.02100
C840        C  0.35774296  0.00174679  0.40186457     0.07600
C841        C  0.35801511  0.02425180  0.37860103    -0.02200
C842        C  0.38148173  0.02465910  0.35650136    -0.02200
C843        C  0.40322013  0.50171625  0.35547463     0.07700
C844        C  0.40470122  0.48117056  0.38051424    -0.02400
Br845      Br  0.43775123  0.45213412  0.38363184    -0.01000
Br846      Br  0.38297672  0.45074749  0.43529913    -0.01000
Br847      Br  0.38175481  0.05653526  0.32584164    -0.01000
Br848      Br  0.32707561  0.05580715  0.37775560    -0.01000
C849        C  0.13848424  0.97140439  0.38381449    -0.02100
C850        C  0.15027128  0.99919832  0.39583906     0.07600
C851        C  0.14233274  0.52604782  0.38210266    -0.02200
C852        C  0.11978793  0.52647863  0.35914457    -0.02200
C853        C  0.10428614  0.00039697  0.35069683     0.07700
C854        C  0.11579998  0.97200608  0.36089347    -0.02400
Br855      Br  0.10282576  0.93422186  0.34112931    -0.01000
Br856      Br  0.15454018  0.93265611  0.39772412    -0.01000
Br857      Br  0.11194781  0.56384477  0.33741767    -0.01000
Br858      Br  0.16405476  0.56338580  0.39301846    -0.01000
C859        C  0.11691575  0.00914415  0.09388999    -0.02100
C860        C  0.14447478  0.49489417  0.09735856     0.07600
C861        C  0.14722560  0.47530489  0.12299061    -0.02200
C862        C  0.12457555  0.47502062  0.14597040    -0.02200
C863        C  0.09691671  0.99145277  0.14339893     0.07700
C864        C  0.09267465  0.00681427  0.11505909    -0.02400
Br865      Br  0.05372230  0.02433717  0.10384250    -0.01000
Br866      Br  0.11173273  0.03508141  0.05831794    -0.01000
Br867      Br  0.12976063  0.44797141  0.18058825    -0.01000
Br868      Br  0.18088190  0.44682573  0.12576419    -0.01000
C869        C  0.35056487  0.98192283  0.12935537    -0.02100
C870        C  0.35359938  0.50030878  0.09926018     0.07600
C871        C  0.38139545  0.51634707  0.09508070    -0.02200
C872        C  0.40529518  0.51377380  0.11681189    -0.02200
C873        C  0.40063840  0.49783511  0.14484053     0.07700
C874        C  0.37351358  0.98221881  0.15215632    -0.02400
Br875      Br  0.36811871  0.95637408  0.18757940    -0.01000
Br876      Br  0.31619762  0.95438244  0.13412648    -0.01000
Br877      Br  0.44417553  0.53230183  0.10703237    -0.01000
Br878      Br  0.38639591  0.54379123  0.06062246    -0.01000
C879        C  0.48000231  0.60308340  0.37364385    -0.02100
C880        C  0.50469769  0.60203382  0.35294508     0.07600
C881        C  0.02496659  0.62358538  0.35821264    -0.02200
C882        C  0.02312556  0.64621649  0.38134570    -0.02200
C883        C  0.99592877  0.64977026  0.39804734     0.07700
C884        C  0.47821687  0.62677738  0.39575151    -0.02400
Br885      Br  0.44089947  0.63274227  0.41833396    -0.01000
Br886      Br  0.44743356  0.57326124  0.37068577    -0.01000
Br887      Br  0.05741496  0.67323726  0.38942040    -0.01000
Br888      Br  0.06058550  0.62171296  0.33273417    -0.01000
C889        C  0.01491783  0.88093278  0.40568330    -0.02100
C890        C  0.99287924  0.85716444  0.40449647     0.07600
C891        C  0.48191040  0.85477289  0.37841871    -0.02200
C892        C  0.48211675  0.87821384  0.35615233    -0.02200
C893        C  0.99478102  0.90297199  0.35809919     0.07700
C894        C  0.01463291  0.90467115  0.38377893    -0.02400
Br895      Br  0.04191899  0.93915018  0.38961413    -0.01000
Br896      Br  0.04755669  0.87980241  0.43550242    -0.01000
Br897      Br  0.45334541  0.87567938  0.32248911    -0.01000
Br898      Br  0.45424734  0.82050033  0.37282213    -0.01000
C899        C  0.47517227  0.86068787  0.11866437    -0.02100
C900        C  0.50252304  0.85072175  0.10485017     0.07600
C901        C  0.02682722  0.86314960  0.11612267    -0.02200
C902        C  0.02646597  0.88668646  0.13845437    -0.02200
C903        C  0.99848867  0.89803557  0.14944617     0.07700
C904        C  0.47569323  0.88506306  0.14024455    -0.02400
Br905      Br  0.43813324  0.90086404  0.15707159    -0.01000
Br906      Br  0.43733767  0.83968327  0.10956388    -0.01000
Br907      Br  0.06419733  0.90264566  0.15493263    -0.01000
Br908      Br  0.06503088  0.84505109  0.10363122    -0.01000
C909        C  0.02779795  0.63118211  0.10905486    -0.02100
C910        C  0.50234304  0.64303455  0.09848332     0.07600
C911        C  0.47433469  0.63013449  0.10774654    -0.02200
C912        C  0.47337705  0.60938766  0.13243879    -0.02200
C913        C  0.50069390  0.59906106  0.14592001     0.07700
C914        C  0.02834537  0.60941223  0.13289415    -0.02400
Br915      Br  0.06681828  0.59464335  0.14850648    -0.01000
Br916      Br  0.06530161  0.64373820  0.08963795    -0.01000
Br917      Br  0.43475173  0.59866787  0.15065431    -0.01000
Br918      Br  0.43723015  0.64116676  0.08678536    -0.01000
O919        O  0.41445016  0.49951370  0.70047760    -0.75600
O920        O  0.45137631  0.49565103  0.66406912    -0.54500
C921        C  0.42320808  0.49735603  0.67220255     0.78200
O922        O  0.50410588  0.58824945  0.80066612    -0.60200
O923        O  0.50505361  0.55128225  0.83771220    -0.53200
C924        C  0.50481619  0.57948352  0.82876671     0.70200
O925        O  0.49969354  0.58624469  0.69878882    -0.74700
O926        O  0.00053121  0.54717648  0.66304179    -0.55300
C927        C  0.49849807  0.57582191  0.67111940     0.76200
O928        O  0.41797069  0.50098942  0.80477342    -0.59900
O929        O  0.45466134  0.00065176  0.83933156    -0.53000
C930        C  0.42779030  0.50269382  0.83267065     0.72800
Zr931      Zr  0.43761352  0.49916300  0.75232124     2.54700
O932        O  0.39482486  0.53463651  0.75125323    -0.80400
O933        O  0.39994504  0.95955978  0.75571740    -0.93800
Zr934      Zr  0.50134209  0.56452091  0.74997369     2.64700
O935        O  0.45976509  0.60160722  0.75045390    -0.98800
O936        O  0.04096243  0.60435083  0.74897841    -0.80900
O937        O  0.46800757  0.53184774  0.72140821    -0.84200
O938        O  0.46966679  0.53332809  0.78098801    -2.18900
O939        O  0.00508653  0.91725070  0.80588773    -0.67600
O940        O  0.49983190  0.95448843  0.84002492    -0.52200
C941        C  0.00490675  0.92734652  0.83397178     0.71200
O942        O  0.08721893  0.99978615  0.69602627    -0.60500
O943        O  0.04650238  0.49467795  0.66103151    -0.52500
C944        C  0.07667002  0.99790625  0.66840769     0.73000
O945        O  0.09219170  0.00628385  0.79794056    -0.71900
O946        O  0.05588514  0.00227491  0.83531488    -0.50600
C947        C  0.08377201  0.00453164  0.82606130     0.74400
O948        O  0.00531243  0.91432281  0.69996465    -0.67200
O949        O  0.00122309  0.95160711  0.66334862    -0.54400
C950        C  0.00332637  0.92338701  0.67189212     0.72700
Zr951      Zr  0.00469673  0.93601877  0.75224047     2.77500
O952        O  0.04399368  0.89639968  0.75453857    -0.98000
O953        O  0.46040736  0.89485115  0.75143599    -0.78800
Zr954      Zr  0.06718893  0.00211508  0.74839104     2.70100
O955        O  0.10382017  0.96027115  0.75174463    -0.80100
O956        O  0.10421420  0.54176847  0.74267807    -0.99100
Zr957      Zr  0.00031445  0.49889551  0.69140104     2.21500
Zr958      Zr  0.50231420  0.00073473  0.80985419     2.11100
O959        O  0.03760835  0.96935011  0.78016530    -2.47800
O960        O  0.03509158  0.96805804  0.72035399    -0.79800
O961        O  0.46830582  0.96848463  0.78152548    -0.72000
O962        O  0.03309154  0.53305241  0.71927861    -2.33000
O963        O  0.46665727  0.96685542  0.72204225    -2.29200
O964        O  0.03547502  0.53413858  0.77913326    -0.73800
H965        H  0.45742693  0.54631822  0.79408770     0.78200
H966        H  0.04514466  0.54546739  0.70554810     0.79300
H967        H  0.05087528  0.95726459  0.79302161     0.81500
H968        H  0.45355506  0.95422276  0.70922729     0.79100
H969        H  0.06018889  0.59276198  0.74633233     0.42200
H970        H  0.10112525  0.55531234  0.76077349     0.41100
H971        H  0.09183624  0.94152312  0.74673025     0.40800
H972        H  0.03712697  0.88188420  0.77054215     0.38700
H973        H  0.47192928  0.87549484  0.75424725     0.41900
H974        H  0.40560830  0.94472581  0.73935985     0.36600
H975        H  0.40112858  0.55099600  0.73688130     0.42800
H976        H  0.44348797  0.59176745  0.73794652     0.39200
H977        H  0.04201922  0.88452170  0.73513910     0.44100
H978        H  0.38039583  0.96862976  0.74893464     0.42800
H979        H  0.45178196  0.60130538  0.77169428     0.43000
H980        H  0.12393740  0.53146307  0.74663881     0.43300
O981        O  0.49996752  0.69509267  0.58652981    -0.75600
O982        O  0.99946894  0.66012535  0.54711628    -0.54500
C983        C  0.50074337  0.66735015  0.57591523     0.78200
O984        O  0.41565922  0.80274878  0.49832407    -0.60200
O985        O  0.45398422  0.83817004  0.50150466    -0.53200
C986        C  0.42572218  0.83075218  0.49904915     0.70200
O987        O  0.41405934  0.69791915  0.50643244    -0.74700
O988        O  0.45197710  0.66253643  0.50636384    -0.55300
C989        C  0.42371551  0.66995688  0.50792454     0.76200
O990        O  0.50060542  0.79812625  0.59034365    -0.59900
O991        O  0.49998468  0.83476717  0.55288805    -0.53000
C992        C  0.50018235  0.82609579  0.58108469     0.72800
Zr993      Zr  0.50062030  0.74755136  0.56661063     2.54700
O994        O  0.46220351  0.74763893  0.60685827    -0.80400
O995        O  0.04534355  0.74950769  0.60077147    -0.93800
Zr996      Zr  0.43548919  0.74996903  0.50273808     2.64700
O997        O  0.39850698  0.75583067  0.54402752    -0.98800
O998        O  0.39524250  0.74837236  0.96542476    -0.80900
O999        O  0.46726159  0.71905384  0.53427086    -0.84200
O1000       O  0.46783892  0.77851532  0.53608105    -2.18900
O1001       O  0.08517964  0.80178964  0.00117209    -0.67600
O1002       O  0.04788674  0.83520334  0.49749898    -0.52200
C1003       C  0.07533297  0.82975223  0.00039837     0.71200
O1004       O  0.00023732  0.69938333  0.91537459    -0.60500
O1005       O  0.00047469  0.66303130  0.95308452    -0.52500
C1006       C  0.00042903  0.67145351  0.92484310     0.73000
O1007       O  0.00243588  0.80298240  0.91658286    -0.71900
O1008       O  0.49933136  0.83910354  0.95622540    -0.50600
C1009       C  0.00229512  0.83097928  0.92674625     0.74400
O1010       O  0.08288569  0.69582214  0.49820651    -0.67200
O1011       O  0.04444941  0.66048081  0.50022914    -0.54400
C1012       C  0.07433383  0.66915946  0.00213313     0.72700
Zr1013     Zr  0.06161529  0.74806235  0.49663274     2.77500
O1014       O  0.10523913  0.74544493  0.96597822    -0.98000
O1015       O  0.10684517  0.74984228  0.52912729    -0.78800
Zr1016     Zr  0.99981830  0.75077538  0.93761469     2.70100
O1017       O  0.03742282  0.75058140  0.89658444    -0.80100
O1018       O  0.45118572  0.74828613  0.90422706    -0.99100
Zr1019     Zr  0.99717885  0.69023246  0.50026546     2.21500
Zr1020     Zr  0.50012788  0.80814694  0.50360411     2.11100
O1021       O  0.03282148  0.77960205  0.96991436    -2.47800
O1022       O  0.03189795  0.72032576  0.96917867    -0.79800
O1023       O  0.03301757  0.77796354  0.53249209    -0.72000
O1024       O  0.46542997  0.72061947  0.96906336    -2.33000
O1025       O  0.03212594  0.71868193  0.53142779    -2.29200
O1026       O  0.46600847  0.78108237  0.97080273    -0.73800
H1027       H  0.45558857  0.79177606  0.54898841     0.78200
H1028       H  0.45224036  0.70769698  0.95658383     0.79300
H1029       H  0.04553184  0.79264974  0.95740197     0.81500
H1030       H  0.04518577  0.70529606  0.54319325     0.79100
H1031       H  0.37747357  0.75792278  0.97569160     0.42200
H1032       H  0.43679060  0.76340484  0.91312012     0.41100
H1033       H  0.05483247  0.73888664  0.90506648     0.40800
H1034       H  0.09822774  0.75726037  0.94795509     0.38700
H1035       H  0.12394313  0.74503971  0.51509269     0.41900
H1036       H  0.06266500  0.75622702  0.58788746     0.36600
H1037       H  0.44303266  0.74197498  0.59610591     0.41000
H1038       H  0.40160032  0.77695333  0.55219596     0.39200
H1039       H  0.12206724  0.75781392  0.97501861     0.44100
H1040       H  0.04980359  0.72770649  0.60543455     0.42800
H1041       H  0.37854663  0.75667893  0.53335959     0.43000
H1042       H  0.45764153  0.75736426  0.88449014     0.43300
O1043       O  0.30020034  0.58630201  0.50043626    -0.75600
O1044       O  0.33548713  0.54829342  0.50494862    -0.54500
C1045       C  0.32785256  0.57678561  0.50350448     0.78200
O1046       O  0.19734116  0.99658547  0.58336981    -0.60200
O1047       O  0.16209193  0.49569504  0.54449103    -0.53200
C1048       C  0.16893355  0.49531492  0.57322878     0.70200
O1049       O  0.30045761  0.00128213  0.58556147    -0.74700
O1050       O  0.33665899  0.99954386  0.54812250    -0.55300
C1051       C  0.32740039  0.49917662  0.57768046     0.76200
O1052       O  0.19654126  0.58466438  0.49678564    -0.59900
O1053       O  0.16186896  0.54559434  0.49917743    -0.53000
C1054       C  0.16888477  0.57434968  0.49818647     0.72800
Zr1055     Zr  0.24877759  0.56401696  0.49946005     2.54700
O1056       O  0.24668900  0.59855851  0.54357952    -0.80400
O1057       O  0.24984505  0.60098574  0.95537831    -0.93800
Zr1058     Zr  0.24910187  0.99887320  0.56286273     2.64700
O1059       O  0.24557645  0.53854570  0.60377327    -0.98800
O1060       O  0.25100964  0.95864251  0.60132568    -0.80900
O1061       O  0.27826918  0.53247011  0.53251569    -0.84200
O1062       O  0.21915761  0.53172095  0.53137323    -2.18900
O1063       O  0.19956280  0.49915796  0.91276649    -0.67600
O1064       O  0.16323925  0.49911716  0.95032018    -0.52200
C1065       C  0.17310352  0.00039335  0.92307515     0.71200
O1066       O  0.30225066  0.91291547  0.49848066    -0.60500
O1067       O  0.33725303  0.95186348  0.49868044    -0.52500
C1068       C  0.32972111  0.92268901  0.00026065     0.73000
O1069       O  0.19950079  0.91200785  0.49857597    -0.71900
O1070       O  0.16375424  0.94957894  0.49381838    -0.50600
C1071       C  0.17019132  0.92278436  0.00041065     0.74400
O1072       O  0.30230816  0.49887824  0.91285352    -0.67200
O1073       O  0.33844574  0.00018760  0.95452287    -0.54400
C1074       C  0.33114401  0.99949368  0.92579112     0.72700
Zr1075     Zr  0.25068625  0.49808554  0.93447477     2.77500
O1076       O  0.24916311  0.95370190  0.90097230    -0.98000
O1077       O  0.25080133  0.53686443  0.89448365    -0.78800
Zr1078     Zr  0.25098860  0.93446045  0.49781368     2.70100
O1079       O  0.24948404  0.89591678  0.95988771    -0.80100
O1080       O  0.25330381  0.89599334  0.53813872    -0.99100
Zr1081     Zr  0.30888694  0.00015902  0.49990400     2.21500
Zr1082     Zr  0.19150956  0.49850537  0.49749662     2.11100
O1083       O  0.22125831  0.96506321  0.96794157    -2.47800
O1084       O  0.28069607  0.96529428  0.96925001    -0.79800
O1085       O  0.22001001  0.53133491  0.96497311    -0.72000
O1086       O  0.27962523  0.96668825  0.53146000    -2.33000
O1087       O  0.27925547  0.53234320  0.96594678    -2.29200
O1088       O  0.22030813  0.96544849  0.53023894    -0.73800
H1089       H  0.20546711  0.54401755  0.54371148     0.78200
H1090       H  0.29266416  0.95423967  0.54422142     0.79300
H1091       H  0.20825476  0.95232355  0.95512648     0.81500
H1092       H  0.29235321  0.54502178  0.95344287     0.79100
H1093       H  0.24478447  0.93972234  0.59010204     0.42200
H1094       H  0.23249240  0.89524972  0.54686533     0.41100
H1095       H  0.25902232  0.90662277  0.94236969     0.40800
H1096       H  0.24316331  0.96283959  0.88109536     0.38700
H1097       H  0.23497579  0.55179138  0.90082675     0.41900
H1098       H  0.24660700  0.62126852  0.96535904     0.36600
H1099       H  0.25627307  0.58688503  0.56046841     0.42800
H1100       H  0.22751044  0.55104300  0.59839158     0.39200
H1101       H  0.27063501  0.94736571  0.89804566     0.44100
H1102       H  0.23078684  0.59699939  0.94371252     0.42800
H1103       H  0.23936342  0.52715767  0.62236232     0.43000
H1104       H  0.25557200  0.87614323  0.52704793     0.43300
C1105       C  0.40410875  0.88163520  0.51751257    -0.02100
C1106       C  0.40291432  0.85605923  0.49716250     0.07600
C1107       C  0.37895810  0.85460331  0.97596679    -0.02200
C1108       C  0.35509644  0.87630846  0.97672420    -0.02200
C1109       C  0.35494993  0.89991390  0.99922825     0.07700
C1110       C  0.38004576  0.90311892  0.51826688    -0.02400
Br1111     Br  0.38039618  0.93515762  0.54935569    -0.01000
Br1112     Br  0.43864951  0.88813934  0.54440328    -0.01000
Br1113     Br  0.32372662  0.87476335  0.94547485    -0.01000
Br1114     Br  0.37999886  0.82430280  0.94333188    -0.01000
C1115       C  0.40236290  0.61787240  0.98826985    -0.02100
C1116       C  0.40050380  0.64463835  0.51064101     0.07600
C1117       C  0.37171588  0.65027651  0.52433722    -0.02200
C1118       C  0.34835266  0.62789043  0.52272791    -0.02200
C1119       C  0.35273753  0.60020411  0.50596218     0.07700
C1120       C  0.37721683  0.59805845  0.98464035    -0.02400
Br1121     Br  0.37729619  0.56790069  0.95176325    -0.01000
Br1122     Br  0.44078631  0.60448514  0.97140255    -0.01000
Br1123     Br  0.31120732  0.63488075  0.54556545    -0.01000
Br1124     Br  0.36490323  0.68681246  0.54906715    -0.01000
C1125       C  0.14684303  0.87406926  0.97962213    -0.02100
C1126       C  0.14506977  0.89977939  0.99960049     0.07600
C1127       C  0.11960250  0.90230174  0.51179222    -0.02200
C1128       C  0.09573359  0.88052148  0.51026735    -0.02200
C1129       C  0.09810014  0.85495879  0.99876493     0.07700
C1130       C  0.12311899  0.85224604  0.97868043    -0.02400
Br1131     Br  0.12261758  0.82150803  0.94637066    -0.01000
Br1132     Br  0.18059182  0.86945912  0.95161515    -0.01000
Br1133     Br  0.05760670  0.89091789  0.53012550    -0.01000
Br1134     Br  0.11503195  0.93766526  0.53861842    -0.01000
C1135       C  0.11506668  0.59213379  0.98842994    -0.02100
C1136       C  0.14341426  0.59729143  0.49950727     0.07600
C1137       C  0.14555841  0.62315483  0.51935928    -0.02200
C1138       C  0.12223658  0.64551124  0.52003738    -0.02200
C1139       C  0.09775776  0.64403125  0.00305129     0.07700
C1140       C  0.09139251  0.61390912  0.99152761    -0.02400
Br1141     Br  0.05041123  0.60069444  0.98070649    -0.01000
Br1142     Br  0.10664887  0.55409941  0.96638003    -0.01000
Br1143     Br  0.12529375  0.67896403  0.54940057    -0.01000
Br1144     Br  0.17932826  0.62707293  0.54780584    -0.01000
C1145       C  0.38168747  0.48423084  0.90484846    -0.02100
C1146       C  0.35619478  0.00052434  0.90266915     0.07600
C1147       C  0.35648786  0.02347830  0.87987861    -0.02200
C1148       C  0.37914970  0.02348062  0.85686146    -0.02200
C1149       C  0.40406894  0.50397997  0.85726947     0.07700
C1150       C  0.40589374  0.48504938  0.88351014    -0.02400
Br1151     Br  0.44078063  0.45888131  0.89007980    -0.01000
Br1152     Br  0.38406442  0.45618269  0.93900161    -0.01000
Br1153     Br  0.37827768  0.05503481  0.82585247    -0.01000
Br1154     Br  0.32656668  0.05599600  0.88095240    -0.01000
C1155       C  0.13414404  0.97480254  0.88960399    -0.02100
C1156       C  0.14976780  0.00177813  0.89873306     0.07600
C1157       C  0.14426298  0.52724106  0.88109091    -0.02200
C1158       C  0.12452415  0.52734346  0.85562901    -0.02200
C1159       C  0.10811892  0.00345447  0.84945934     0.07700
C1160       C  0.11403500  0.97550148  0.86440651    -0.02400
Br1161     Br  0.09897626  0.93752642  0.84654276    -0.01000
Br1162     Br  0.14152060  0.93653347  0.91043147    -0.01000
Br1163     Br  0.12505076  0.56174120  0.82786704    -0.01000
Br1164     Br  0.16562234  0.56440686  0.89300845    -0.01000
C1165       C  0.11870575  0.01348682  0.59301630    -0.02100
C1166       C  0.14346438  0.49342821  0.59587183     0.07600
C1167       C  0.14595621  0.47390895  0.62157208    -0.02200
C1168       C  0.12384651  0.47471942  0.64499719    -0.02200
C1169       C  0.09937216  0.99587778  0.64282582     0.07700
C1170       C  0.09596668  0.01374350  0.61594460    -0.02400
Br1171     Br  0.06077917  0.03977230  0.61040606    -0.01000
Br1172     Br  0.11446067  0.04058964  0.55826869    -0.01000
Br1173     Br  0.12954027  0.44887720  0.68047991    -0.01000
Br1174     Br  0.17826538  0.44380945  0.62370083    -0.01000
C1175       C  0.35080007  0.98083195  0.62585359    -0.02100
C1176       C  0.35206224  0.49829956  0.60158683     0.07600
C1177       C  0.37942393  0.51510529  0.59766439    -0.02200
C1178       C  0.40322976  0.51325807  0.61954715    -0.02200
C1179       C  0.39914337  0.49685914  0.64734729     0.07700
C1180       C  0.37313751  0.98165304  0.64923486    -0.02400
Br1181     Br  0.36918099  0.95370849  0.68316820    -0.01000
Br1182     Br  0.31883946  0.95016020  0.62765969    -0.01000
Br1183     Br  0.44155243  0.53287438  0.60997908    -0.01000
Br1184     Br  0.38412245  0.54236635  0.56306141    -0.01000
C1185       C  0.47646765  0.60877438  0.86873851    -0.02100
C1186       C  0.50373500  0.60390155  0.85237802     0.07600
C1187       C  0.02748744  0.60649275  0.87423040    -0.02200
C1188       C  0.02750193  0.63055266  0.89593276    -0.02200
C1189       C  0.00070359  0.64730007  0.90121416     0.07700
C1190       C  0.47442436  0.63312481  0.88995568    -0.02400
Br1191     Br  0.43522651  0.64585421  0.90555539    -0.01000
Br1192     Br  0.44118635  0.58363993  0.86055604    -0.01000
Br1193     Br  0.06512125  0.64338420  0.91549103    -0.01000
Br1194     Br  0.06287721  0.58097949  0.87067395    -0.01000
C1195       C  0.02205213  0.88211949  0.90738183    -0.02100
C1196       C  0.00266927  0.85626429  0.90367475     0.07600
C1197       C  0.47390548  0.85672623  0.88118390    -0.02200
C1198       C  0.47483321  0.87867656  0.85752218    -0.02200
C1199       C  0.00312564  0.90412254  0.85920215     0.07700
C1200       C  0.02058372  0.90691487  0.88661603    -0.02400
Br1201     Br  0.04044974  0.94509749  0.89810697    -0.01000
Br1202     Br  0.05295238  0.88265278  0.93900766    -0.01000
Br1203     Br  0.44464369  0.87641040  0.82518187    -0.01000
Br1204     Br  0.44076349  0.82737394  0.88236514    -0.01000
C1205       C  0.47211279  0.85981178  0.61758314    -0.02100
C1206       C  0.49994168  0.85010444  0.60480045     0.07600
C1207       C  0.02920420  0.86397618  0.61325164    -0.02200
C1208       C  0.02991057  0.88831599  0.63473825    -0.02200
C1209       C  0.00259288  0.89920684  0.64785473     0.07700
C1210       C  0.47184319  0.88414023  0.63903025    -0.02400
Br1211     Br  0.43368843  0.89898907  0.65519375    -0.01000
Br1212     Br  0.43470795  0.83857905  0.60699039    -0.01000
Br1213     Br  0.06829607  0.90670296  0.64597537    -0.01000
Br1214     Br  0.06667993  0.84675187  0.59752961    -0.01000
C1215       C  0.02897375  0.63399555  0.61302456    -0.02100
C1216       C  0.50051892  0.64242191  0.59869423     0.07600
C1217       C  0.47248759  0.62997799  0.60831718    -0.02200
C1218       C  0.47158151  0.60935412  0.63308251    -0.02200
C1219       C  0.49896829  0.59887833  0.64639415     0.07700
C1220       C  0.02870023  0.61186072  0.63653939    -0.02400
Br1221     Br  0.06622137  0.60062729  0.65690300    -0.01000
Br1222     Br  0.06691224  0.65224525  0.60042543    -0.01000
Br1223     Br  0.43294009  0.59922691  0.65154301    -0.01000
Br1224     Br  0.43527038  0.64207968  0.58808281    -0.01000
O1225       O  0.91321935  0.00187722  0.20083651    -0.75600
O1226       O  0.95027188  0.99899054  0.16423261    -0.54500
C1227       C  0.92211217  0.00040198  0.17258235     0.78200
O1228       O  0.00299665  0.08788075  0.30207501    -0.60200
O1229       O  0.00310148  0.05044773  0.33864081    -0.53200
C1230       C  0.00292567  0.07875228  0.33010316     0.70200
O1231       O  0.00154149  0.08736095  0.20019834    -0.74700
O1232       O  0.50059326  0.04800897  0.16334745    -0.55300
C1233       C  0.00077063  0.07737641  0.17238490     0.76200
O1234       O  0.91612143  0.00170960  0.30470169    -0.59900
O1235       O  0.95520704  0.50142399  0.33981331    -0.53000
C1236       C  0.92609867  0.00240915  0.33261439     0.72800
Zr1237     Zr  0.93662143  0.00207192  0.25240574     2.54700
O1238       O  0.89947983  0.04352856  0.25245223    -0.80400
O1239       O  0.89677470  0.46246060  0.25665554    -0.93800
Zr1240     Zr  0.00309563  0.06474542  0.25087309     2.64700
O1241       O  0.96707149  0.10728848  0.24892803    -0.98800
O1242       O  0.54621371  0.10042299  0.24914791    -0.80900
O1243       O  0.96861772  0.03355160  0.22184668    -0.84200
O1244       O  0.96982776  0.03462475  0.28136539    -2.18900
O1245       O  0.50125677  0.41552782  0.30521278    -0.67600
O1246       O  0.00031656  0.45516602  0.34009727    -0.52200
C1247       C  0.50099772  0.42615734  0.33308299     0.71200
O1248       O  0.58571076  0.49684375  0.19506698    -0.60500
O1249       O  0.54747949  0.99563904  0.16183187    -0.52500
C1250       C  0.57530858  0.49470843  0.16732928     0.73000
O1251       O  0.58908064  0.50104888  0.29870006    -0.71900
O1252       O  0.55209417  0.49939989  0.33562374    -0.50600
C1253       C  0.58014790  0.49998635  0.32677704     0.74400
O1254       O  0.50261997  0.41207410  0.20058224    -0.67200
O1255       O  0.50106010  0.44926136  0.16360172    -0.54400
C1256       C  0.50209784  0.42111923  0.17249514     0.72700
Zr1257     Zr  0.50129434  0.43499912  0.25192016     2.77500
O1258       O  0.54050468  0.39551824  0.25467997    -0.98000
O1259       O  0.96288713  0.39525238  0.25172684    -0.78800
Zr1260     Zr  0.56571559  0.49946933  0.24784888     2.70100
O1261       O  0.60245258  0.45762658  0.24843770    -0.80100
O1262       O  0.60359500  0.04482450  0.24343941    -0.99100
Zr1263     Zr  0.50117830  0.99975234  0.19194569     2.21500
Zr1264     Zr  0.00258310  0.50188371  0.31009842     2.11100
O1265       O  0.53473829  0.46783106  0.27958223    -2.47800
O1266       O  0.53283629  0.46602064  0.22013621    -0.79800
O1267       O  0.96956476  0.46875100  0.28137167    -0.72000
O1268       O  0.53398786  0.03425503  0.21946402    -2.33000
O1269       O  0.96810083  0.46710684  0.22207490    -2.29200
O1270       O  0.53596752  0.03537217  0.27991058    -0.73800
H1271       H  0.95781750  0.04781252  0.29449228     0.78200
H1272       H  0.54585394  0.04667846  0.20556861     0.79300
H1273       H  0.54746639  0.45544111  0.29268810     0.81500
H1274       H  0.95526132  0.45414923  0.20931486     0.79100
H1275       H  0.54777630  0.10702686  0.22749448     0.42200
H1276       H  0.59888885  0.05905946  0.26063506     0.41100
H1277       H  0.62196025  0.46745932  0.25462040     0.40800
H1278       H  0.53222060  0.37788347  0.24271633     0.38700
H1279       H  0.95032802  0.39909121  0.23321918     0.41900
H1280       H  0.90227679  0.44593748  0.24193147     0.36600
H1281       H  0.91113465  0.06181250  0.24567265     0.42800
H1282       H  0.95633871  0.10697174  0.26889052     0.39200
H1283       H  0.55739563  0.40357562  0.24197748     0.44100
H1284       H  0.87848811  0.47235750  0.24777412     0.42800
H1285       H  0.97993809  0.12607095  0.24980526     0.43000
H1286       H  0.62348522  0.03564538  0.24901026     0.43300
O1287       O  0.00112477  0.19698267  0.08719762    -0.75600
O1288       O  0.50044367  0.16070942  0.04785739    -0.54500
C1289       C  0.00093491  0.16900803  0.07716438     0.78200
O1290       O  0.91609955  0.30386080  0.99955125    -0.60200
O1291       O  0.95470838  0.33907174  0.99925212    -0.53200
C1292       C  0.92634155  0.33177366  0.99854192     0.70200
O1293       O  0.91401076  0.19936413  0.00242289    -0.74700
O1294       O  0.95134993  0.16297075  0.00373813    -0.55300
C1295       C  0.92315744  0.17123121  0.00322280     0.76200
O1296       O  0.99953810  0.30033010  0.08927415    -0.59900
O1297       O  0.99871687  0.33655351  0.05139465    -0.53000
C1298       C  0.99854968  0.32818908  0.07971487     0.72800
Zr1299     Zr  0.00141696  0.24924873  0.06666573     2.54700
O1300       O  0.96372414  0.24782594  0.10752318    -0.80400
O1301       O  0.54823936  0.24726790  0.09901801    -0.93800
Zr1302     Zr  0.93602627  0.25106294  0.00340034     2.64700
O1303       O  0.90152368  0.25359290  0.04714698    -0.98800
O1304       O  0.89446405  0.24745872  0.46499436    -0.80900
O1305       O  0.96761939  0.22021520  0.03524981    -0.84200
O1306       O  0.96867437  0.27994038  0.03585059    -2.18900
O1307       O  0.58536331  0.30065700  0.50282429    -0.67600
O1308       O  0.54791088  0.33652262  0.99808785    -0.52200
C1309       C  0.57591270  0.32873909  0.50274411     0.71200
O1310       O  0.50037827  0.20078941  0.41515168    -0.60500
O1311       O  0.49941092  0.16405918  0.45253283    -0.52500
C1312       C  0.49989282  0.17276642  0.42436111     0.73000
O1313       O  0.50089327  0.30451504  0.41820455    -0.71900
O1314       O  0.99697234  0.33829147  0.45584487    -0.50600
C1315       C  0.50150938  0.33242381  0.42861940     0.74400
O1316       O  0.58516313  0.19637723  0.99742389    -0.67200
O1317       O  0.54673562  0.16103058  0.00065100    -0.54400
C1318       C  0.57377934  0.16821375  0.50472640     0.72700
Zr1319     Zr  0.56438948  0.24869702  0.99842198     2.77500
O1320       O  0.60025478  0.24171438  0.46177315    -0.98000
O1321       O  0.60653663  0.25018812  0.03490830    -0.78800
Zr1322     Zr  0.50038945  0.25180272  0.43819749     2.70100
O1323       O  0.54209575  0.25407799  0.40148576    -0.80100
O1324       O  0.94895436  0.24885536  0.40783678    -0.99100
Zr1325     Zr  0.49938620  0.19031723  0.00092884     2.21500
Zr1326     Zr  0.00061512  0.30892057  0.00260219     2.11100
O1327       O  0.53317010  0.28002659  0.47101119    -2.47800
O1328       O  0.53161922  0.22014612  0.46944633    -0.79800
O1329       O  0.53477203  0.27884754  0.03302315    -0.72000
O1330       O  0.96478200  0.22012276  0.47012681    -2.33000
O1331       O  0.53420709  0.21883490  0.03225310    -2.29200
O1332       O  0.96495787  0.28056501  0.47101554    -0.73800
H1333       H  0.95642770  0.29344363  0.04847685     0.78200
H1334       H  0.95177817  0.20688423  0.45775855     0.79300
H1335       H  0.54591736  0.29325225  0.45872740     0.81500
H1336       H  0.54705135  0.20541993  0.04423381     0.79100
H1337       H  0.89773392  0.22765740  0.45408264     0.42200
H1338       H  0.93646589  0.26612919  0.41573600     0.41100
H1339       H  0.53295071  0.24701702  0.38182598     0.40800
H1340       H  0.59316356  0.25561370  0.44535062     0.38700
H1341       H  0.62507334  0.25098488  0.02198946     0.41900
H1342       H  0.54519442  0.26417325  0.11406605     0.36600
H1343       H  0.94747197  0.23398568  0.09959909     0.41000
H1344       H  0.91172725  0.26698908  0.06256307     0.39200
H1345       H  0.61933209  0.25120775  0.46961708     0.44100
H1346       H  0.56525908  0.25441893  0.08596183     0.42800
H1347       H  0.88397896  0.26585584  0.03985044     0.43000
H1348       H  0.95513768  0.25514904  0.38697479     0.43300
O1349       O  0.79978871  0.08680782  0.99974597    -0.75600
O1350       O  0.83613985  0.04938782  0.00154262    -0.54500
C1351       C  0.82775791  0.07775210  0.00093192     0.78200
O1352       O  0.69634878  0.49680550  0.08324955    -0.60200
O1353       O  0.66175296  0.99382885  0.04258815    -0.53200
C1354       C  0.66834354  0.99350730  0.07138037     0.70200
O1355       O  0.80049212  0.50307308  0.08569527    -0.74700
O1356       O  0.83674643  0.49996953  0.04834850    -0.55300
C1357       C  0.82789422  0.00124784  0.07695444     0.76200
O1358       O  0.69633196  0.08375109  0.99725461    -0.59900
O1359       O  0.66180405  0.04448470  0.99731431    -0.53000
C1360       C  0.66874996  0.07327517  0.99765331     0.72800
Zr1361     Zr  0.74861373  0.06384561  0.99841208     2.54700
O1362       O  0.74760224  0.10250682  0.03907680    -0.80400
O1363       O  0.74933065  0.09956118  0.45556944    -0.93800
Zr1364     Zr  0.74868838  0.50049258  0.06337022     2.64700
O1365       O  0.74575081  0.03962822  0.10197750    -0.98800
O1366       O  0.74853483  0.46066856  0.10229340    -0.80900
O1367       O  0.77809812  0.03281671  0.03192708    -0.84200
O1368       O  0.71900058  0.03131651  0.03026493    -2.18900
O1369       O  0.69939409  0.99951605  0.41517083    -0.67600
O1370       O  0.66289855  0.99962487  0.45252397    -0.52200
C1371       C  0.67195591  0.49619932  0.42197624     0.71200
O1372       O  0.80249324  0.41284799  0.00107025    -0.60500
O1373       O  0.83736989  0.45199041  0.00012014    -0.52500
C1374       C  0.82914481  0.42319057  0.50152837     0.73000
O1375       O  0.69882600  0.41237041  0.99940442    -0.71900
O1376       O  0.66352513  0.45051358  0.99469942    -0.50600
C1377       C  0.67052976  0.42167389  0.50150832     0.74400
O1378       O  0.80310142  0.99809758  0.41631718    -0.67200
O1379       O  0.83774789  0.49923289  0.45425644    -0.54400
C1380       C  0.83064134  0.49669010  0.42557210     0.72700
Zr1381     Zr  0.75091076  0.99620827  0.43687584     2.77500
O1382       O  0.75228753  0.45733696  0.39520544    -0.98000
O1383       O  0.74934325  0.02905389  0.39188516    -0.78800
Zr1384     Zr  0.75074404  0.43412170  0.99980710     2.70100
O1385       O  0.74830533  0.39799089  0.45909190    -0.80100
O1386       O  0.74943786  0.39498803  0.03956197    -0.99100
Zr1387     Zr  0.80879358  0.49978081  0.00036594     2.21500
Zr1388     Zr  0.69190872  0.99770560  0.99612687     2.11100
O1389       O  0.72084416  0.46420697  0.46763390    -2.47800
O1390       O  0.77984785  0.46514817  0.46922318    -0.79800
O1391       O  0.72032730  0.03028928  0.46647496    -0.72000
O1392       O  0.77924752  0.46725676  0.03288474    -2.33000
O1393       O  0.77947574  0.03128488  0.46782046    -2.29200
O1394       O  0.72030035  0.46660586  0.03108406    -0.73800
H1395       H  0.70515050  0.04344827  0.04259405     0.78200
H1396       H  0.79225506  0.45513002  0.04598630     0.79300
H1397       H  0.70805706  0.45096073  0.45513282     0.81500
H1398       H  0.79273961  0.04365455  0.45518635     0.79100
H1399       H  0.74521147  0.44126434  0.09067663     0.42200
H1400       H  0.76691682  0.40001302  0.05317519     0.41100
H1401       H  0.76052531  0.40802425  0.44289371     0.40800
H1402       H  0.73680929  0.44191275  0.40128539     0.38700
H1403       H  0.74732577  0.05016344  0.40037373     0.41900
H1404       H  0.76783389  0.09417008  0.44373550     0.36600
H1405       H  0.75508102  0.09156540  0.05747344     0.42800
H1406       H  0.72372919  0.04296398  0.10563332     0.39200
H1407       H  0.74337518  0.46749127  0.37699098     0.44100
H1408       H  0.75411226  0.11985233  0.46497123     0.42800
H1409       H  0.75320659  0.02973251  0.12097832     0.43000
H1410       H  0.73121526  0.39999475  0.05200324     0.43300
C1411       C  0.90563305  0.38305049  0.01665203    -0.02100
C1412       C  0.90364791  0.35714905  0.99681190     0.07600
C1413       C  0.87790059  0.35459340  0.47819340    -0.02200
C1414       C  0.85428081  0.37650498  0.47861891    -0.02200
C1415       C  0.85414393  0.40023829  0.50099271     0.07700
C1416       C  0.88106179  0.40380177  0.01888431    -0.02400
Br1417     Br  0.88220464  0.43563306  0.05015035    -0.01000
Br1418     Br  0.94245808  0.39179255  0.03959752    -0.01000
Br1419     Br  0.82287038  0.37454208  0.44748546    -0.01000
Br1420     Br  0.87938067  0.32441213  0.44538308    -0.01000
C1421       C  0.90282921  0.11756909  0.49226976    -0.02100
C1422       C  0.89924879  0.14679126  0.00328973     0.07600
C1423       C  0.87352025  0.14957898  0.02265780    -0.02200
C1424       C  0.85023258  0.12712706  0.02189888    -0.02200
C1425       C  0.85210742  0.10172196  0.00151404     0.07700
C1426       C  0.87794127  0.09761764  0.48804422    -0.02400
Br1427     Br  0.87981931  0.06660692  0.45602639    -0.01000
Br1428     Br  0.94205356  0.10409237  0.47729665    -0.01000
Br1429     Br  0.81631253  0.13109100  0.04984712    -0.01000
Br1430     Br  0.87046524  0.18331120  0.05171477    -0.01000
C1431       C  0.64696388  0.37319499  0.48078655    -0.02100
C1432       C  0.64583324  0.39837747  0.50141457     0.07600
C1433       C  0.61987327  0.40275783  0.01433018    -0.02200
C1434       C  0.59638218  0.38060673  0.01379933    -0.02200
C1435       C  0.59912221  0.35343256  0.50148586     0.07700
C1436       C  0.62346247  0.35111467  0.48047202    -0.02400
Br1437     Br  0.62309177  0.31963169  0.44884627    -0.01000
Br1438     Br  0.67977587  0.36953789  0.45155668    -0.01000
Br1439     Br  0.56072923  0.38748839  0.03901012    -0.01000
Br1440     Br  0.61622968  0.43740214  0.04203105    -0.01000
C1441       C  0.61508825  0.09144912  0.49142265    -0.02100
C1442       C  0.64348845  0.09626450  0.99931420     0.07600
C1443       C  0.64641595  0.12227576  0.01889039    -0.02200
C1444       C  0.62415938  0.14560057  0.01884599    -0.02200
C1445       C  0.59704799  0.14288818  0.50666894     0.07700
C1446       C  0.59108602  0.11276479  0.49502531    -0.02400
Br1447     Br  0.55007604  0.09838796  0.48629030    -0.01000
Br1448     Br  0.60703993  0.05352902  0.46902931    -0.01000
Br1449     Br  0.62896384  0.18003032  0.04685938    -0.01000
Br1450     Br  0.67945483  0.12498161  0.04834198    -0.01000
C1451       C  0.88166077  0.98163140  0.40544279    -0.02100
C1452       C  0.85579079  0.49755670  0.40227972     0.07600
C1453       C  0.85328448  0.51685382  0.37636239    -0.02200
C1454       C  0.87663523  0.51788042  0.35413779    -0.02200
C1455       C  0.90271582  0.00271652  0.35766841     0.07700
C1456       C  0.90475267  0.98232953  0.38279705    -0.02400
Br1457     Br  0.93802832  0.95353872  0.38545912    -0.01000
Br1458     Br  0.88458802  0.95215789  0.43830745    -0.01000
Br1459     Br  0.87255723  0.54625420  0.32036400    -0.01000
Br1460     Br  0.81821639  0.54318479  0.37130689    -0.01000
C1461       C  0.63447541  0.46959932  0.38716441    -0.02100
C1462       C  0.64826064  0.49702769  0.39784401     0.07600
C1463       C  0.64390802  0.02845517  0.38303251    -0.02200
C1464       C  0.62363110  0.02873939  0.35789952    -0.02200
C1465       C  0.60414998  0.49892081  0.35060009     0.07700
C1466       C  0.61349219  0.47042891  0.36260106    -0.02400
Br1467     Br  0.60096186  0.43268911  0.34240161    -0.01000
Br1468     Br  0.64569338  0.43082695  0.40497952    -0.01000
Br1469     Br  0.62196246  0.06422172  0.33148916    -0.01000
Br1470     Br  0.66591490  0.06537594  0.39438165    -0.01000
C1471       C  0.61692826  0.51105315  0.09188586    -0.02100
C1472       C  0.64272355  0.99118918  0.09408184     0.07600
C1473       C  0.64620937  0.97304026  0.12065920    -0.02200
C1474       C  0.62488588  0.97481976  0.14485900    -0.02200
C1475       C  0.59787847  0.49278335  0.14160222     0.07700
C1476       C  0.59407701  0.51062225  0.11470814    -0.02400
Br1477     Br  0.55841458  0.53603937  0.10915208    -0.01000
Br1478     Br  0.61206685  0.53792473  0.05701143    -0.01000
Br1479     Br  0.63199622  0.95049458  0.18114976    -0.01000
Br1480     Br  0.67846232  0.94285789  0.12258794    -0.01000
C1481       C  0.85078006  0.48073927  0.12550219    -0.02100
C1482       C  0.85225512  0.00093877  0.10116011     0.07600
C1483       C  0.87755482  0.02119598  0.09972718    -0.02200
C1484       C  0.90056369  0.02050826  0.12255636    -0.02200
C1485       C  0.89820359  0.00036626  0.14785913     0.07700
C1486       C  0.87349653  0.48021133  0.14854616    -0.02400
Br1487     Br  0.86896324  0.45155413  0.18185360    -0.01000
Br1488     Br  0.81786776  0.45106537  0.12682379    -0.01000
Br1489     Br  0.93505022  0.04792636  0.11903829    -0.01000
Br1490     Br  0.88053889  0.05098738  0.06713417    -0.01000
C1491       C  0.97491372  0.10575094  0.37212243    -0.02100
C1492       C  0.00148967  0.10271548  0.35420045     0.07600
C1493       C  0.52508491  0.10522879  0.37621868    -0.02200
C1494       C  0.52562139  0.12966430  0.39744537    -0.02200
C1495       C  0.50003405  0.14873351  0.40058450     0.07700
C1496       C  0.97253646  0.12990707  0.39357050    -0.02400
Br1497     Br  0.93324842  0.14099796  0.41002984    -0.01000
Br1498     Br  0.94094982  0.07826592  0.36608746    -0.01000
Br1499     Br  0.56258812  0.13921825  0.41978280    -0.01000
Br1500     Br  0.55788654  0.07600981  0.37646624    -0.01000
C1501       C  0.52115774  0.38283501  0.40696901    -0.02100
C1502       C  0.50062420  0.35771383  0.40559307     0.07600
C1503       C  0.97606167  0.35516400  0.37861709    -0.02200
C1504       C  0.97687236  0.37814853  0.35586063    -0.02200
C1505       C  0.50005677  0.40348666  0.35894388     0.07700
C1506       C  0.51924921  0.40672729  0.38514193    -0.02400
Br1507     Br  0.54203306  0.44410198  0.39277856    -0.01000
Br1508     Br  0.55342356  0.38376975  0.43728002    -0.01000
Br1509     Br  0.94742775  0.37646293  0.32277844    -0.01000
Br1510     Br  0.94598501  0.32274684  0.37526817    -0.01000
C1511       C  0.97070363  0.36434740  0.11448126    -0.02100
C1512       C  0.99838459  0.35231492  0.10335630     0.07600
C1513       C  0.53000827  0.36144147  0.11577575    -0.02200
C1514       C  0.52999664  0.38474199  0.13828828    -0.02200
C1515       C  0.50219680  0.39711510  0.14864644     0.07700
C1516       C  0.97121174  0.38857180  0.13609995    -0.02400
Br1517     Br  0.93362461  0.40685911  0.14987809    -0.01000
Br1518     Br  0.93241828  0.34534241  0.10292922    -0.01000
Br1519     Br  0.56792563  0.39900103  0.15555789    -0.01000
Br1520     Br  0.56770730  0.34158181  0.10425975    -0.01000
C1521       C  0.52820472  0.13333663  0.11241664    -0.02100
C1522       C  0.00083687  0.14455747  0.10043639     0.07600
C1523       C  0.97391939  0.13857147  0.11689981    -0.02200
C1524       C  0.97427603  0.11781362  0.14154139    -0.02200
C1525       C  0.00092134  0.10093444  0.14808094     0.07700
C1526       C  0.52739889  0.11084402  0.13553069    -0.02400
Br1527     Br  0.56492360  0.09684301  0.15393801    -0.01000
Br1528     Br  0.56666023  0.15014211  0.09901731    -0.01000
Br1529     Br  0.93919383  0.11481892  0.16800794    -0.01000
Br1530     Br  0.93643262  0.15851610  0.10515110    -0.01000
O1531       O  0.91600737  0.00025875  0.70165021    -0.75600
O1532       O  0.95246592  0.99805461  0.66460419    -0.54500
C1533       C  0.92440898  0.99918927  0.67324681     0.78200
O1534       O  0.00185184  0.08700529  0.80378928    -0.60200
O1535       O  0.00618410  0.04927138  0.83974763    -0.53200
C1536       C  0.00368455  0.07752456  0.83173151     0.70200
O1537       O  0.99952376  0.08751869  0.70065424    -0.74700
O1538       O  0.49942677  0.04740380  0.66344804    -0.55300
C1539       C  0.99907718  0.07758140  0.67279598     0.76200
O1540       O  0.91924749  0.00230907  0.80523676    -0.59900
O1541       O  0.95681680  0.50250658  0.83979909    -0.53000
C1542       C  0.92947848  0.00366462  0.83298556     0.72800
Zr1543     Zr  0.93942479  0.99895270  0.75310197     2.54700
O1544       O  0.89604805  0.03370411  0.75170616    -0.80400
O1545       O  0.90452094  0.45516485  0.75734271    -0.93800
Zr1546     Zr  0.00208142  0.06528550  0.75155735     2.64700
O1547       O  0.96114002  0.10306665  0.75154880    -0.98800
O1548       O  0.54838244  0.09681531  0.74554604    -0.80900
O1549       O  0.96937175  0.03229970  0.72246519    -0.84200
O1550       O  0.97110239  0.03310237  0.78196778    -2.18900
O1551       O  0.50073810  0.41615895  0.80600999    -0.67600
O1552       O  0.00204939  0.45471028  0.83999607    -0.52200
C1553       C  0.50021058  0.42677058  0.83384584     0.71200
O1554       O  0.58600152  0.49769910  0.69681992    -0.60500
O1555       O  0.54509049  0.99340673  0.66145511    -0.52500
C1556       C  0.57538972  0.49563142  0.66923164     0.73000
O1557       O  0.58958135  0.50052950  0.79928197    -0.71900
O1558       O  0.55301132  0.50038458  0.83665612    -0.50600
C1559       C  0.58096324  0.50005130  0.82742642     0.74400
O1560       O  0.50339062  0.41318753  0.70114773    -0.67200
O1561       O  0.49949282  0.45019023  0.66419576    -0.54400
C1562       C  0.50150020  0.42211646  0.67305004     0.72700
Zr1563     Zr  0.50202062  0.43549162  0.75292052     2.77500
O1564       O  0.54122652  0.39599468  0.75597427    -0.98000
O1565       O  0.96480534  0.39522362  0.75242034    -0.78800
Zr1566     Zr  0.56556595  0.50049941  0.74898945     2.70100
O1567       O  0.60386006  0.46005727  0.74962485    -0.80100
O1568       O  0.60599949  0.03509166  0.74367878    -0.99100
Zr1569     Zr  0.49884087  0.99874127  0.69142282     2.21500
Zr1570     Zr  0.00422750  0.50165697  0.81007669     2.11100
O1571       O  0.53515375  0.46857828  0.78083775    -2.47800
O1572       O  0.53304466  0.46677602  0.72106928    -0.79800
O1573       O  0.97144143  0.46807439  0.78178551    -0.72000
O1574       O  0.53345055  0.03098490  0.71926716    -2.33000
O1575       O  0.96942950  0.46616053  0.72234664    -2.29200
O1576       O  0.53552313  0.03173255  0.77953581    -0.73800
H1577       H  0.95874997  0.04573447  0.79529829     0.78200
H1578       H  0.54588282  0.04298553  0.70549552     0.79300
H1579       H  0.54797845  0.45619468  0.79386954     0.81500
H1580       H  0.95666538  0.45305507  0.70968072     0.79100
H1581       H  0.54224036  0.11675384  0.75474160     0.42200
H1582       H  0.59720187  0.05464139  0.75134315     0.41100
H1583       H  0.62346495  0.47105501  0.75275153     0.40800
H1584       H  0.53246092  0.37796490  0.74497312     0.38700
H1585       H  0.95201056  0.39904449  0.73407554     0.41900
H1586       H  0.90794381  0.44252135  0.73868251     0.36600
H1587       H  0.90524066  0.05454104  0.75218456     0.42800
H1588       H  0.94455406  0.09346478  0.76354181     0.39200
H1589       H  0.55767436  0.40345279  0.74236743     0.44100
H1590       H  0.88373974  0.46367786  0.75492205     0.42800
H1591       H  0.96861893  0.12019469  0.76472267     0.43000
H1592       H  0.62127892  0.02934986  0.75939818     0.43300
O1593       O  0.99925968  0.19611658  0.58695082    -0.75600
O1594       O  0.49958918  0.16039298  0.54794312    -0.54500
C1595       C  0.99929006  0.16821181  0.57683037     0.78200
O1596       O  0.91445049  0.30292161  0.50193151    -0.60200
O1597       O  0.95288176  0.33845429  0.50227585    -0.53200
C1598       C  0.92453040  0.33091109  0.50160601     0.70200
O1599       O  0.91282333  0.19825366  0.50591146    -0.74700
O1600       O  0.95060581  0.16252858  0.50660874    -0.55300
C1601       C  0.92240760  0.17028589  0.50728985     0.76200
O1602       O  0.99973505  0.29849873  0.59000416    -0.59900
O1603       O  0.99926980  0.33515572  0.55256863    -0.53000
C1604       C  0.99922806  0.32646048  0.58079617     0.72800
Zr1605     Zr  0.00124392  0.24806810  0.56618795     2.54700
O1606       O  0.96754959  0.24753846  0.61052232    -0.80400
O1607       O  0.53978956  0.24836490  0.60521853    -0.93800
Zr1608     Zr  0.93447819  0.25012585  0.50392644     2.64700
O1609       O  0.89761620  0.25253974  0.54553666    -0.98800
O1610       O  0.89311857  0.25015002  0.96780830    -0.80900
O1611       O  0.96678173  0.21945919  0.53515006    -0.84200
O1612       O  0.96769968  0.27875760  0.53627795    -2.18900
O1613       O  0.58590014  0.30086811  0.99718194    -0.67600
O1614       O  0.54783307  0.33688061  0.50323691    -0.52200
C1615       C  0.57611086  0.32884673  0.99685590     0.71200
O1616       O  0.50078588  0.19889989  0.91497219    -0.60500
O1617       O  0.49729004  0.16241418  0.95236673    -0.52500
C1618       C  0.49950804  0.17090225  0.92418176     0.73000
O1619       O  0.49938210  0.30256687  0.91642157    -0.71900
O1620       O  0.00010714  0.33764774  0.95485512    -0.50600
C1621       C  0.49955956  0.33058074  0.92660469     0.74400
O1622       O  0.58370960  0.19615471  0.50373384    -0.67200
O1623       O  0.54530095  0.16110581  0.50403144    -0.54400
C1624       C  0.57517527  0.16846275  0.99900891     0.72700
Zr1625     Zr  0.56364129  0.24869633  0.50310649     2.77500
O1626       O  0.59901017  0.24510779  0.95498735    -0.98000
O1627       O  0.60376836  0.25204477  0.54177514    -0.78800
Zr1628     Zr  0.49722639  0.25013444  0.93718624     2.70100
O1629       O  0.53172436  0.25111399  0.89351410    -0.80100
O1630       O  0.95599180  0.24608830  0.90278202    -0.99100
Zr1631     Zr  0.49858363  0.19094465  0.50149275     2.21500
Zr1632     Zr  0.99923039  0.30851071  0.50312954     2.11100
O1633       O  0.53162325  0.27904506  0.96783019    -2.47800
O1634       O  0.53061505  0.21945203  0.96706772    -0.79800
O1635       O  0.53219761  0.27848722  0.53623956    -0.72000
O1636       O  0.96685734  0.22079894  0.97009896    -2.33000
O1637       O  0.53163392  0.21895010  0.53518070    -2.29200
O1638       O  0.96711610  0.28044374  0.97007998    -0.73800
H1639       H  0.95563508  0.29196911  0.54940174     0.78200
H1640       H  0.95406013  0.20760711  0.95749126     0.79300
H1641       H  0.54368488  0.29219790  0.95480468     0.81500
H1642       H  0.54381874  0.20546608  0.54775997     0.79100
H1643       H  0.89910689  0.23532722  0.95154283     0.42200
H1644       H  0.93992219  0.25912403  0.91204113     0.41100
H1645       H  0.54935313  0.26361468  0.90058970     0.40800
H1646       H  0.59115557  0.26011987  0.93996404     0.38700
H1647       H  0.62198020  0.25940913  0.53056254     0.41900
H1648       H  0.55790307  0.25599194  0.59404771     0.36600
H1649       H  0.94914899  0.25875909  0.60369241     0.41000
H1650       H  0.90678105  0.26662945  0.56099917     0.39200
H1651       H  0.61845375  0.25406326  0.96253905     0.44100
H1652       H  0.54424014  0.22639251  0.60904888     0.42800
H1653       H  0.88012510  0.26408575  0.53703058     0.43000
H1654       H  0.96252463  0.25721317  0.88417468     0.43300
O1655       O  0.79914599  0.08756503  0.50122006    -0.75600
O1656       O  0.83483113  0.04965248  0.50481665    -0.54500
C1657       C  0.82678042  0.07810259  0.50376336     0.78200
O1658       O  0.69630824  0.49888772  0.58535148    -0.60200
O1659       O  0.66231363  0.99595545  0.54695994    -0.53200
C1660       C  0.66895514  0.99710800  0.57566014     0.70200
O1661       O  0.79977310  0.50356553  0.58737841    -0.74700
O1662       O  0.83567783  0.49946758  0.54991951    -0.55300
C1663       C  0.82738896  0.00230781  0.58029213     0.76200
O1664       O  0.69718764  0.08529115  0.49725711    -0.59900
O1665       O  0.66285829  0.04649478  0.50330301    -0.53000
C1666       C  0.66977610  0.07516272  0.50084063     0.72800
Zr1667     Zr  0.74877777  0.06404038  0.49858329     2.54700
O1668       O  0.74969013  0.10508318  0.53668242    -0.80400
O1669       O  0.74682431  0.10193353  0.95773206    -0.93800
Zr1670     Zr  0.74831241  0.50110723  0.56484489     2.64700
O1671       O  0.74838526  0.04398225  0.60410804    -0.98800
O1672       O  0.74723050  0.46109642  0.60356271    -0.80900
O1673       O  0.77803426  0.03419617  0.53331662    -0.84200
O1674       O  0.71933938  0.03356657  0.53255716    -2.18900
O1675       O  0.70166315  0.99816573  0.91022291    -0.67600
O1676       O  0.66497668  0.99575072  0.94731870    -0.52200
C1677       C  0.67454161  0.49705584  0.91990815     0.71200
O1678       O  0.80153005  0.41293963  0.50183448    -0.60500
O1679       O  0.83662383  0.45187206  0.50144541    -0.52500
C1680       C  0.83009855  0.42325056  0.00046943     0.73000
O1681       O  0.69824784  0.41220473  0.50449925    -0.71900
O1682       O  0.66267940  0.44989013  0.49811226    -0.50600
C1683       C  0.67112701  0.42207189  0.99679326     0.74400
O1684       O  0.80456244  0.99980525  0.91318624    -0.67200
O1685       O  0.83878102  0.50012088  0.95327170    -0.54400
C1686       C  0.83198264  0.49904106  0.92446412     0.72700
Zr1687     Zr  0.75235988  0.99926712  0.93353219     2.77500
O1688       O  0.75309854  0.45633484  0.89590574    -0.98000
O1689       O  0.75238552  0.04158871  0.89722420    -0.78800
Zr1690     Zr  0.74986969  0.43405312  0.50204592     2.70100
O1691       O  0.75151423  0.39695499  0.95772108    -0.80100
O1692       O  0.75182177  0.39413001  0.54102337    -0.99100
Zr1693     Zr  0.80782448  0.49945492  0.50153278     2.21500
Zr1694     Zr  0.69144349  0.99884653  0.50024718     2.11100
O1695       O  0.72221222  0.46505349  0.96568645    -2.47800
O1696       O  0.78133847  0.46547156  0.96755389    -0.79800
O1697       O  0.72078365  0.03124185  0.96442867    -0.72000
O1698       O  0.77860789  0.46740192  0.53463599    -2.33000
O1699       O  0.78003015  0.03286757  0.96653988    -2.29200
O1700       O  0.71964618  0.46674207  0.53328617    -0.73800
H1701       H  0.70594262  0.04644336  0.54463856     0.78200
H1702       H  0.79168221  0.45534166  0.54773613     0.79300
H1703       H  0.70948124  0.45210072  0.95282017     0.81500
H1704       H  0.79324328  0.04582245  0.95444003     0.79100
H1705       H  0.75178695  0.44187760  0.59212149     0.42200
H1706       H  0.75494223  0.37476927  0.52931149     0.41100
H1707       H  0.74460707  0.40856090  0.93951418     0.40800
H1708       H  0.75610187  0.46709206  0.87617012     0.38700
H1709       H  0.74563595  0.05967435  0.90935764     0.41900
H1710       H  0.76736591  0.10144772  0.94835873     0.36600
H1711       H  0.75170563  0.09430861  0.55653451     0.42800
H1712       H  0.72816248  0.05379322  0.60187482     0.39200
H1713       H  0.77248715  0.44526170  0.89943664     0.44100
H1714       H  0.74599823  0.12195766  0.96871755     0.42800
H1715       H  0.74745303  0.03335964  0.62413385     0.43000
H1716       H  0.77131403  0.39757349  0.55211655     0.43300
C1717       C  0.90271791  0.38124076  0.52097317    -0.02100
C1718       C  0.90161676  0.35606160  0.50016974     0.07600
C1719       C  0.87914779  0.35514334  0.97580610    -0.02200
C1720       C  0.85516687  0.37666194  0.97703968    -0.02200
C1721       C  0.85541659  0.40051770  0.99933843     0.07700
C1722       C  0.87853364  0.40251058  0.52214944    -0.02400
Br1723     Br  0.87793587  0.43335796  0.55440555    -0.01000
Br1724     Br  0.93751078  0.38773571  0.54743903    -0.01000
Br1725     Br  0.82312570  0.37444878  0.94658031    -0.01000
Br1726     Br  0.88050894  0.32533319  0.94267134    -0.01000
C1727       C  0.90126372  0.12119175  0.98314425    -0.02100
C1728       C  0.89913560  0.14536057  0.50906934     0.07600
C1729       C  0.87223390  0.14956786  0.52651656    -0.02200
C1730       C  0.84907466  0.12701011  0.52582445    -0.02200
C1731       C  0.85125961  0.10158142  0.50551460     0.07700
C1732       C  0.87754745  0.09922858  0.98178615    -0.02400
Br1733     Br  0.87897029  0.06734957  0.95066020    -0.01000
Br1734     Br  0.93582395  0.11635236  0.95615852    -0.01000
Br1735     Br  0.81571949  0.13012509  0.55450248    -0.01000
Br1736     Br  0.86802103  0.18441894  0.55409599    -0.01000
C1737       C  0.64767362  0.37338862  0.97560805    -0.02100
C1738       C  0.64610828  0.39889821  0.99586473     0.07600
C1739       C  0.62031991  0.40186632  0.52086497    -0.02200
C1740       C  0.59698032  0.37960990  0.52081545    -0.02200
C1741       C  0.59902307  0.35401280  0.99506226     0.07700
C1742       C  0.62389490  0.35154177  0.97467285    -0.02400
Br1743     Br  0.62392440  0.32030249  0.94288253    -0.01000
Br1744     Br  0.68173639  0.36855413  0.94800671    -0.01000
Br1745     Br  0.56224597  0.38565149  0.54743707    -0.01000
Br1746     Br  0.61736058  0.43641008  0.54871903    -0.01000
C1747       C  0.61655527  0.09282857  0.98149675    -0.02100
C1748       C  0.64456929  0.09818010  0.50312202     0.07600
C1749       C  0.64927546  0.12644225  0.51887157    -0.02200
C1750       C  0.62609561  0.14880370  0.52003534    -0.02200
C1751       C  0.59825051  0.14322678  0.99950655     0.07700
C1752       C  0.59444259  0.11644440  0.98113677    -0.02400
Br1753     Br  0.55991625  0.11258284  0.95368378    -0.01000
Br1754     Br  0.60929549  0.05601090  0.95724102    -0.01000
Br1755     Br  0.63395859  0.18595882  0.54371813    -0.01000
Br1756     Br  0.68644370  0.13418958  0.54173436    -0.01000
C1757       C  0.88336791  0.98358922  0.90458464    -0.02100
C1758       C  0.85738878  0.50048583  0.90177785     0.07600
C1759       C  0.85674672  0.52248770  0.87803876    -0.02200
C1760       C  0.88010889  0.52335416  0.85582583    -0.02200
C1761       C  0.90616686  0.00511582  0.85799239     0.07700
C1762       C  0.90757007  0.98488945  0.88324577    -0.02400
Br1763     Br  0.94184690  0.95752628  0.88815061    -0.01000
Br1764     Br  0.88463115  0.95321218  0.93664187    -0.01000
Br1765     Br  0.87837065  0.55406283  0.82400546    -0.01000
Br1766     Br  0.82479861  0.55300192  0.87685477    -0.01000
C1767       C  0.63613964  0.47009032  0.88704455    -0.02100
C1768       C  0.65108511  0.49747230  0.89593484     0.07600
C1769       C  0.64375893  0.02453728  0.87989700    -0.02200
C1770       C  0.62039362  0.02553749  0.85777768    -0.02200
C1771       C  0.60535108  0.49898183  0.85070068     0.07700
C1772       C  0.61404768  0.47066675  0.86357150    -0.02400
Br1773     Br  0.59866213  0.43257697  0.84638013    -0.01000
Br1774     Br  0.64699716  0.43177035  0.90607761    -0.01000
Br1775     Br  0.61184774  0.06336604  0.83690813    -0.01000
Br1776     Br  0.66737126  0.06109068  0.88918626    -0.01000
C1777       C  0.61727778  0.51293098  0.59443002    -0.02100
C1778       C  0.64329120  0.99414054  0.59783031     0.07600
C1779       C  0.64630108  0.97476973  0.62350227    -0.02200
C1780       C  0.62367389  0.97430924  0.64637275    -0.02200
C1781       C  0.59789665  0.49382611  0.64356735     0.07700
C1782       C  0.59415921  0.51191019  0.61687233    -0.02400
Br1783     Br  0.55778363  0.53602860  0.61056223    -0.01000
Br1784     Br  0.61281770  0.54042664  0.56003818    -0.01000
Br1785     Br  0.63034515  0.94884933  0.68198201    -0.01000
Br1786     Br  0.67963712  0.94583704  0.62567152    -0.01000
C1787       C  0.84866637  0.48389069  0.62940610    -0.02100
C1788       C  0.85189811  0.00181749  0.60433971     0.07600
C1789       C  0.87841297  0.02000782  0.60107446    -0.02200
C1790       C  0.90290576  0.01734986  0.62204399    -0.02200
C1791       C  0.89989230  0.99935734  0.64895829     0.07700
C1792       C  0.87178312  0.48340490  0.65206184    -0.02400
Br1793     Br  0.86493378  0.45913756  0.68841397    -0.01000
Br1794     Br  0.81282348  0.45856910  0.63523084    -0.01000
Br1795     Br  0.94078313  0.03756454  0.61211122    -0.01000
Br1796     Br  0.88050773  0.05060436  0.56912142    -0.01000
C1797       C  0.97592102  0.11883723  0.86042081    -0.02100
C1798       C  0.00243453  0.10093273  0.85641185     0.07600
C1799       C  0.52747775  0.12297037  0.85714594    -0.02200
C1800       C  0.52673157  0.14498113  0.88098573    -0.02200
C1801       C  0.50107646  0.14682915  0.90031964     0.07700
C1802       C  0.97500283  0.14164396  0.88346899    -0.02400
Br1803     Br  0.93836626  0.16544171  0.88990231    -0.01000
Br1804     Br  0.94040822  0.11145741  0.83528651    -0.01000
Br1805     Br  0.56118205  0.17211880  0.88759176    -0.01000
Br1806     Br  0.56043426  0.12384362  0.82802539    -0.01000
C1807       C  0.51797552  0.38234384  0.90739247    -0.02100
C1808       C  0.49917661  0.35598070  0.90367550     0.07600
C1809       C  0.97794315  0.35474876  0.87873098    -0.02200
C1810       C  0.97848829  0.37773512  0.85597895    -0.02200
C1811       C  0.49824928  0.40392632  0.85937064     0.07700
C1812       C  0.51635908  0.40682894  0.88627416    -0.02400
Br1813     Br  0.53766832  0.44473076  0.89597532    -0.01000
Br1814     Br  0.54791275  0.38444748  0.93995309    -0.01000
Br1815     Br  0.94823094  0.37640422  0.82367818    -0.01000
Br1816     Br  0.94612610  0.32388037  0.87773878    -0.01000
C1817       C  0.97193241  0.36030099  0.61811593    -0.02100
C1818       C  0.99940418  0.35037055  0.60466448     0.07600
C1819       C  0.52687576  0.35839077  0.61954851    -0.02200
C1820       C  0.52779245  0.38220549  0.64150922    -0.02200
C1821       C  0.50086404  0.39802038  0.64925041     0.07700
C1822       C  0.97232171  0.38497585  0.63923362    -0.02400
Br1823     Br  0.93457726  0.40108917  0.65525041    -0.01000
Br1824     Br  0.93433082  0.33850293  0.60954966    -0.01000
Br1825     Br  0.56591820  0.39329214  0.66072765    -0.01000
Br1826     Br  0.56321560  0.33505509  0.61025789    -0.01000
C1827       C  0.52603653  0.12923957  0.60842780    -0.02100
C1828       C  0.99940270  0.14379651  0.60017123     0.07600
C1829       C  0.97163379  0.13126171  0.61047083    -0.02200
C1830       C  0.97131829  0.11126955  0.63575321    -0.02200
C1831       C  0.99900130  0.10107331  0.64855563     0.07700
C1832       C  0.52613185  0.10738534  0.63218673    -0.02400
Br1833     Br  0.56426431  0.09102939  0.64703114    -0.01000
Br1834     Br  0.56385320  0.14122961  0.58928626    -0.01000
Br1835     Br  0.93326572  0.10189779  0.65585047    -0.01000
Br1836     Br  0.93400636  0.14215524  0.59045663    -0.01000
O1837       O  0.91464054  0.49936495  0.19956306    -0.75600
O1838       O  0.95182297  0.49866965  0.16311900    -0.54500
C1839       C  0.92361633  0.49901648  0.17129337     0.78200
O1840       O  0.00232122  0.58810224  0.30132223    -0.60200
O1841       O  0.00266261  0.55066622  0.33788897    -0.53200
C1842       C  0.00227244  0.57897056  0.32932979     0.70200
O1843       O  0.00134318  0.58712189  0.19934727    -0.74700
O1844       O  0.49912973  0.54701648  0.16244151    -0.55300
C1845       C  0.00116908  0.57707493  0.17155561     0.76200
O1846       O  0.91706555  0.49831899  0.30419050    -0.59900
O1847       O  0.95462405  0.00302678  0.34011364    -0.53000
C1848       C  0.92676447  0.49955709  0.33220243     0.72800
Zr1849     Zr  0.93714839  0.50065218  0.25168162     2.54700
O1850       O  0.90154525  0.54358061  0.25134704    -0.80400
O1851       O  0.89921929  0.96072017  0.25567393    -0.93800
Zr1852     Zr  0.00159974  0.56497222  0.25023305     2.64700
O1853       O  0.96102468  0.60311833  0.24846112    -0.98800
O1854       O  0.54176812  0.60346586  0.24860623    -0.80900
O1855       O  0.96821664  0.53290614  0.22100552    -0.84200
O1856       O  0.96933150  0.53392327  0.28092307    -2.18900
O1857       O  0.50379508  0.91740499  0.30648513    -0.67600
O1858       O  0.99887012  0.95468818  0.34021742    -0.52200
C1859       C  0.50268440  0.92783331  0.33442573     0.71200
O1860       O  0.58691166  0.99853424  0.19581017    -0.60500
O1861       O  0.54675272  0.49437533  0.16039365    -0.52500
C1862       C  0.57613447  0.99590000  0.16822175     0.73000
O1863       O  0.59091924  0.00539978  0.29912396    -0.71900
O1864       O  0.55398917  0.00183594  0.33599979    -0.50600
C1865       C  0.58200703  0.00352192  0.32715759     0.74400
O1866       O  0.50621433  0.91358110  0.20156946    -0.67200
O1867       O  0.50146248  0.95061589  0.16476297    -0.54400
C1868       C  0.50408077  0.92247660  0.17347158     0.72700
Zr1869     Zr  0.50472319  0.93661033  0.25304373     2.77500
O1870       O  0.54712563  0.90069526  0.25573351    -0.98000
O1871       O  0.95591281  0.89989987  0.25100580    -0.78800
Zr1872     Zr  0.56703804  0.00287389  0.24865700     2.70100
O1873       O  0.60612917  0.96336639  0.25180362    -0.80100
O1874       O  0.60500494  0.53919824  0.24581912    -0.99100
Zr1875     Zr  0.50036744  0.49829472  0.19048276     2.21500
Zr1876     Zr  0.00214876  0.00182562  0.31076476     2.11100
O1877       O  0.53711769  0.97039214  0.28068308    -2.47800
O1878       O  0.53502412  0.96848813  0.22105019    -0.79800
O1879       O  0.96806455  0.96960031  0.28239657    -0.72000
O1880       O  0.53376573  0.53187623  0.21845774    -2.33000
O1881       O  0.96649507  0.96798455  0.22245549    -2.29200
O1882       O  0.53523028  0.53283274  0.27857735    -0.73800
H1883       H  0.95702170  0.54669272  0.29417674     0.78200
H1884       H  0.54604289  0.54412800  0.20476450     0.79300
H1885       H  0.55013595  0.95834742  0.29381576     0.81500
H1886       H  0.95338160  0.95530080  0.20970786     0.79100
H1887       H  0.56060970  0.59220982  0.24317948     0.42200
H1888       H  0.59981260  0.55366690  0.26267789     0.41100
H1889       H  0.59630459  0.94605534  0.26268578     0.40800
H1890       H  0.53798981  0.88045123  0.25042695     0.38700
H1891       H  0.96559585  0.87934635  0.25019993     0.41900
H1892       H  0.90575080  0.94525677  0.24024497     0.36600
H1893       H  0.89945438  0.54941366  0.22950766     0.42800
H1894       H  0.94383445  0.59358680  0.25963210     0.39200
H1895       H  0.55999972  0.90583149  0.23783081     0.44100
H1896       H  0.88020313  0.96958978  0.24728964     0.42800
H1897       H  0.96804548  0.62012923  0.26204298     0.43000
H1898       H  0.62385924  0.52891244  0.25289636     0.43300
O1899       O  0.99831735  0.69693296  0.08705262    -0.75600
O1900       O  0.50013207  0.66039996  0.04685174    -0.54500
C1901       C  0.99946323  0.66907520  0.07686949     0.78200
O1902       O  0.91572136  0.80428421  0.99719944    -0.60200
O1903       O  0.95453598  0.83933042  0.99913978    -0.53200
C1904       C  0.92616671  0.83219499  0.99713055     0.70200
O1905       O  0.91382407  0.69900241  0.00093358    -0.74700
O1906       O  0.95132144  0.66279450  0.00279061    -0.55300
C1907       C  0.92312392  0.67087596  0.00210256     0.76200
O1908       O  0.99843206  0.79947181  0.08981011    -0.59900
O1909       O  0.00077919  0.83586162  0.05217491    -0.53000
C1910       C  0.99952534  0.82738475  0.08047930     0.72800
Zr1911     Zr  0.99888080  0.74893743  0.06624748     2.54700
O1912       O  0.95848074  0.74845578  0.10448834    -0.80400
O1913       O  0.54830689  0.74966792  0.09848061    -0.93800
Zr1914     Zr  0.93531892  0.75118684  0.00147820     2.64700
O1915       O  0.90007301  0.75302995  0.04460650    -0.98800
O1916       O  0.89121839  0.74993324  0.46956528    -0.80900
O1917       O  0.96611668  0.72001666  0.03374468    -0.84200
O1918       O  0.96718208  0.78012445  0.03486254    -2.18900
O1919       O  0.58472379  0.80192825  0.50257474    -0.67600
O1920       O  0.54915385  0.83521400  0.99781409    -0.52200
C1921       C  0.57496706  0.82999369  0.50238427     0.71200
O1922       O  0.50314472  0.69986349  0.41491878    -0.60500
O1923       O  0.49831669  0.66301814  0.45174118    -0.52500
C1924       C  0.50126174  0.67172491  0.42367744     0.73000
O1925       O  0.50133258  0.80352821  0.41766022    -0.71900
O1926       O  0.99563651  0.83909523  0.45609372    -0.50600
C1927       C  0.50062512  0.83145541  0.42804942     0.74400
O1928       O  0.58447287  0.69551197  0.99774882    -0.67200
O1929       O  0.54596826  0.66010317  0.99872102    -0.54400
C1930       C  0.57488469  0.66844731  0.50057364     0.72700
Zr1931     Zr  0.56397062  0.74794976  0.99749505     2.77500
O1932       O  0.60055805  0.74582058  0.45998143    -0.98000
O1933       O  0.60671933  0.74952492  0.03329446    -0.78800
Zr1934     Zr  0.49909763  0.75084895  0.43791944     2.70100
O1935       O  0.53384288  0.75258151  0.39449998    -0.80100
O1936       O  0.94516155  0.74883245  0.40821958    -0.99100
Zr1937     Zr  0.49908871  0.69003209  0.99946022     2.21500
Zr1938     Zr  0.00030248  0.80892109  0.00265054     2.11100
O1939       O  0.53248634  0.77954103  0.47010191    -2.47800
O1940       O  0.53180750  0.72020734  0.46863479    -0.79800
O1941       O  0.53482747  0.77805649  0.03259917    -0.72000
O1942       O  0.96264735  0.72080499  0.47074412    -2.33000
O1943       O  0.53381095  0.71812860  0.03120215    -2.29200
O1944       O  0.96324680  0.78126970  0.47207178    -0.73800
H1945       H  0.95492725  0.79378114  0.04733862     0.78200
H1946       H  0.94921037  0.70776934  0.45864271     0.79300
H1947       H  0.54491481  0.79298086  0.45771897     0.81500
H1948       H  0.54665973  0.70451548  0.04293572     0.79100
H1949       H  0.89414620  0.73101542  0.45709840     0.42200
H1950       H  0.93300484  0.76653488  0.41566022     0.41100
H1951       H  0.55405884  0.74781469  0.40342669     0.40800
H1952       H  0.59306027  0.76058982  0.44453203     0.38700
H1953       H  0.60176806  0.76638908  0.04785767     0.41900
H1954       H  0.55934936  0.76859268  0.09242434     0.36600
H1955       H  0.94627737  0.72981829  0.09959669     0.41000
H1956       H  0.90941808  0.76728460  0.05981008     0.39200
H1957       H  0.61951706  0.75513521  0.46830682     0.44100
H1958       H  0.56145552  0.73265344  0.09116015     0.42800
H1959       H  0.88210357  0.76424311  0.03670476     0.43000
H1960       H  0.95110232  0.75437157  0.38704945     0.43300
O1961       O  0.80039701  0.58621830  0.99882151    -0.75600
O1962       O  0.83620282  0.54839953  0.00230692    -0.54500
C1963       C  0.82819595  0.57684485  0.00092324     0.78200
O1964       O  0.69581881  0.99525283  0.08209632    -0.60200
O1965       O  0.66223288  0.49487041  0.04367685    -0.53200
C1966       C  0.66892636  0.49488189  0.07245362     0.70200
O1967       O  0.79980302  0.00133798  0.08585651    -0.74700
O1968       O  0.83629333  0.00089906  0.04862147    -0.55300
C1969       C  0.82853611  0.50170244  0.07661726     0.76200
O1970       O  0.69673865  0.58415570  0.99629929    -0.59900
O1971       O  0.66208513  0.54496044  0.99788016    -0.53000
C1972       C  0.66911473  0.57370094  0.99727700     0.72800
Zr1973     Zr  0.74909264  0.56373149  0.99756194     2.54700
O1974       O  0.74802525  0.60341504  0.03721944    -0.80400
O1975       O  0.74838054  0.59823964  0.45449530    -0.93800
Zr1976     Zr  0.74844980  0.99931048  0.06280841     2.64700
O1977       O  0.74436841  0.54125317  0.10179575    -0.98800
O1978       O  0.74996671  0.95906245  0.10124568    -0.80900
O1979       O  0.77843844  0.53302243  0.03161524    -0.84200
O1980       O  0.71944578  0.53217876  0.03030938    -2.18900
O1981       O  0.69984001  0.49521118  0.41286332    -0.67600
O1982       O  0.66334283  0.49721050  0.45021671    -0.52200
C1983       C  0.67147440  0.00014970  0.42432613     0.71200
O1984       O  0.80330592  0.91380510  0.99738802    -0.60500
O1985       O  0.83774788  0.95331389  0.99776161    -0.52500
C1986       C  0.82932715  0.92439157  0.50322585     0.73000
O1987       O  0.69966768  0.91231997  0.99853301    -0.71900
O1988       O  0.66408723  0.94998581  0.99311246    -0.50600
C1989       C  0.67131700  0.92220926  0.50337818     0.74400
O1990       O  0.80302651  0.49424159  0.41542884    -0.67200
O1991       O  0.83800918  0.00080990  0.45523460    -0.54400
C1992       C  0.83077632  0.99977641  0.42648269     0.72700
Zr1993     Zr  0.75082697  0.49636543  0.43564890     2.77500
O1994       O  0.75079531  0.95029804  0.40438406    -0.98000
O1995       O  0.75059729  0.53866986  0.39934440    -0.78800
Zr1996     Zr  0.75145827  0.93449479  0.99783165     2.70100
O1997       O  0.75022034  0.89501641  0.46498451    -0.80100
O1998       O  0.75383085  0.89462965  0.03676227    -0.99100
Zr1999     Zr  0.80880263  0.00075901  0.99992692     2.21500
Zr2000     Zr  0.69199305  0.49815649  0.99696869     2.11100
O2001       O  0.72095581  0.96467678  0.46932016    -2.47800
O2002       O  0.78017456  0.96571478  0.47086809    -0.79800
O2003       O  0.71951657  0.52961317  0.46544894    -0.72000
O2004       O  0.77954497  0.96719450  0.03162503    -2.33000
O2005       O  0.77924078  0.53082618  0.46711315    -2.29200
O2006       O  0.72041722  0.96569768  0.02984151    -0.73800
H2007       H  0.70574192  0.54464878  0.04246178     0.78200
H2008       H  0.79266569  0.95487498  0.04442684     0.79300
H2009       H  0.70801676  0.95142176  0.45697483     0.81500
H2010       H  0.79263007  0.54320043  0.45460448     0.79100
H2011       H  0.74761260  0.93966903  0.08936575     0.42200
H2012       H  0.73442745  0.89649448  0.04818394     0.41100
H2013       H  0.74628029  0.90594228  0.44553070     0.40800
H2014       H  0.73976728  0.95652070  0.38556565     0.38700
H2015       H  0.73651540  0.55401271  0.40836663     0.41900
H2016       H  0.76869018  0.59548776  0.44500326     0.36600
H2017       H  0.74738334  0.59191373  0.05674315     0.42800
H2018       H  0.74698399  0.53062525  0.12166829     0.39200
H2019       H  0.77222848  0.94775264  0.39775733     0.44100
H2020       H  0.74924648  0.61902159  0.46398992     0.42800
H2021       H  0.76320113  0.55364560  0.09946665     0.43000
H2022       H  0.75182974  0.87506239  0.02508055     0.43300
C2023       C  0.90487125  0.88303788  0.01579992    -0.02100
C2024       C  0.90379798  0.85787760  0.99494403     0.07600
C2025       C  0.87742103  0.85533214  0.48050157    -0.02200
C2026       C  0.85381144  0.87723765  0.48093215    -0.02200
C2027       C  0.85427571  0.90152470  0.50263360     0.07700
C2028       C  0.88091923  0.90460166  0.01666945    -0.02400
Br2029     Br  0.88131242  0.93657065  0.04786150    -0.01000
Br2030     Br  0.93921925  0.88895336  0.04303464    -0.01000
Br2031     Br  0.82148287  0.87453423  0.45074059    -0.01000
Br2032     Br  0.87748012  0.82395164  0.44884601    -0.01000
C2033       C  0.90223793  0.61732381  0.49083966    -0.02100
C2034       C  0.89949083  0.64613337  0.00265193     0.07600
C2035       C  0.87356003  0.64917931  0.02171695    -0.02200
C2036       C  0.85050907  0.62647640  0.02137001    -0.02200
C2037       C  0.85278491  0.60056196  0.00168549     0.07700
C2038       C  0.87805182  0.59611349  0.48793353    -0.02400
Br2039     Br  0.88130968  0.56289133  0.45817711    -0.01000
Br2040     Br  0.94078136  0.60642366  0.47228006    -0.01000
Br2041     Br  0.81653879  0.63055425  0.04926193    -0.01000
Br2042     Br  0.86996837  0.68351361  0.05001012    -0.01000
C2043       C  0.64898028  0.87182147  0.48509954    -0.02100
C2044       C  0.64646258  0.89880118  0.50324238     0.07600
C2045       C  0.61929728  0.90338479  0.01059738    -0.02200
C2046       C  0.59602643  0.88098290  0.01008530    -0.02200
C2047       C  0.59811319  0.85516182  0.50103783     0.07700
C2048       C  0.62435734  0.85113112  0.48281353    -0.02400
Br2049     Br  0.62437598  0.82075215  0.45023081    -0.01000
Br2050     Br  0.68558900  0.86281565  0.46230158    -0.01000
Br2051     Br  0.55809893  0.89054653  0.03091764    -0.01000
Br2052     Br  0.61270044  0.94056607  0.03426140    -0.01000
C2053       C  0.61604700  0.59270687  0.48257245    -0.02100
C2054       C  0.64371624  0.59649429  0.99857442     0.07600
C2055       C  0.64511267  0.62126087  0.01975171    -0.02200
C2056       C  0.62243113  0.64419248  0.01981894    -0.02200
C2057       C  0.59775024  0.64297614  0.50103907     0.07700
C2058       C  0.59410168  0.61646866  0.48210814    -0.02400
Br2059     Br  0.55992339  0.61275042  0.45413694    -0.01000
Br2060     Br  0.60893259  0.55587059  0.45833525    -0.01000
Br2061     Br  0.62525284  0.67735373  0.04953926    -0.01000
Br2062     Br  0.67656480  0.62237855  0.05093968    -0.01000
C2063       C  0.88233111  0.47938421  0.40557404    -0.02100
C2064       C  0.85591838  0.00109671  0.40321605     0.07600
C2065       C  0.85411908  0.02174905  0.37827549    -0.02200
C2066       C  0.87738754  0.02276414  0.35592901    -0.02200
C2067       C  0.90305331  0.49943383  0.35708916     0.07700
C2068       C  0.90581495  0.48041923  0.38327689    -0.02400
Br2069     Br  0.94081330  0.45413266  0.38819969    -0.01000
Br2070     Br  0.88571334  0.45102079  0.43936928    -0.01000
Br2071     Br  0.87493011  0.05312186  0.32373402    -0.01000
Br2072     Br  0.82020905  0.04980390  0.37482650    -0.01000
C2073       C  0.63124783  0.97457767  0.39226429    -0.02100
C2074       C  0.64773119  0.00139043  0.40028843     0.07600
C2075       C  0.64164571  0.52505415  0.38321815    -0.02200
C2076       C  0.61916870  0.52609609  0.36008077    -0.02200
C2077       C  0.60582787  0.00247895  0.35109388     0.07700
C2078       C  0.61087427  0.97495182  0.36721817    -0.02400
Br2079     Br  0.59345791  0.93689414  0.35192512    -0.01000
Br2080     Br  0.63744435  0.93704866  0.41485473    -0.01000
Br2081     Br  0.61065301  0.56423035  0.33965418    -0.01000
Br2082     Br  0.66474088  0.56158877  0.39369371    -0.01000
C2083       C  0.61496763  0.00734705  0.08997795    -0.02100
C2084       C  0.64331717  0.49264469  0.09491458     0.07600
C2085       C  0.64529490  0.47217459  0.11985685    -0.02200
C2086       C  0.62356651  0.47317429  0.14368442    -0.02200
C2087       C  0.59822262  0.99297334  0.14195768     0.07700
C2088       C  0.59261745  0.00761115  0.11338687    -0.02400
Br2089     Br  0.55461614  0.02876429  0.10548541    -0.01000
Br2090     Br  0.60700018  0.02988978  0.05261311    -0.01000
Br2091     Br  0.62938623  0.44690219  0.17876743    -0.01000
Br2092     Br  0.67602413  0.44037981  0.11984210    -0.01000
C2093       C  0.85068688  0.97974557  0.12561327    -0.02100
C2094       C  0.85312344  0.50107111  0.10047028     0.07600
C2095       C  0.87965568  0.51949029  0.09774428    -0.02200
C2096       C  0.90287555  0.51834842  0.12034577    -0.02200
C2097       C  0.89973009  0.49921263  0.14645039     0.07700
C2098       C  0.87307176  0.97988151  0.14905044    -0.02400
Br2099     Br  0.86999494  0.95017815  0.18158931    -0.01000
Br2100     Br  0.81944316  0.94827612  0.12573265    -0.01000
Br2101     Br  0.93849475  0.54404637  0.11524422    -0.01000
Br2102     Br  0.88431256  0.54710893  0.06339651    -0.01000
C2103       C  0.97289450  0.60744707  0.36930805    -0.02100
C2104       C  0.00044435  0.60303718  0.35328172     0.07600
C2105       C  0.52778238  0.62474862  0.35492387    -0.02200
C2106       C  0.52739904  0.64664716  0.37896907    -0.02200
C2107       C  0.50251317  0.64776936  0.39942289     0.07700
C2108       C  0.97011148  0.63206743  0.39023250    -0.02400
Br2109     Br  0.93031498  0.64478183  0.40406540    -0.01000
Br2110     Br  0.93851813  0.58074613  0.36164009    -0.01000
Br2111     Br  0.56151071  0.67446470  0.38445352    -0.01000
Br2112     Br  0.55973260  0.62648587  0.32465334    -0.01000
C2113       C  0.51704782  0.88471917  0.41013737    -0.02100
C2114       C  0.50029591  0.85713804  0.40511629     0.07600
C2115       C  0.97106617  0.85713587  0.38055106    -0.02200
C2116       C  0.97295152  0.87886551  0.35668860    -0.02200
C2117       C  0.50045777  0.90482088  0.36005888     0.07700
C2118       C  0.51573172  0.90902493  0.38865173    -0.02400
Br2119     Br  0.53278416  0.94850333  0.40054790    -0.01000
Br2120     Br  0.54364274  0.88906783  0.44541193    -0.01000
Br2121     Br  0.94447246  0.87581401  0.32283043    -0.01000
Br2122     Br  0.93718060  0.82865269  0.38137008    -0.01000
C2123       C  0.97123153  0.86094047  0.11721042    -0.02100
C2124       C  0.99915734  0.85136847  0.10441195     0.07600
C2125       C  0.53055522  0.86345257  0.11459331    -0.02200
C2126       C  0.53112697  0.88716289  0.13687408    -0.02200
C2127       C  0.50368033  0.89823384  0.14949075     0.07700
C2128       C  0.97088848  0.88464088  0.13940565    -0.02400
Br2129     Br  0.93281812  0.89818296  0.15681302    -0.01000
Br2130     Br  0.93380693  0.84001605  0.10604638    -0.01000
Br2131     Br  0.56943352  0.90455005  0.15008921    -0.01000
Br2132     Br  0.56821057  0.84695961  0.09868756    -0.01000
C2133       C  0.52946671  0.63436979  0.11357467    -0.02100
C2134       C  0.99992562  0.64454489  0.10004823     0.07600
C2135       C  0.97287419  0.63690203  0.11560891    -0.02200
C2136       C  0.97358304  0.61577771  0.13991176    -0.02200
C2137       C  0.00096443  0.60058254  0.14730232     0.07700
C2138       C  0.52866279  0.61241721  0.13722850    -0.02400
Br2139     Br  0.56549060  0.60221919  0.15939490    -0.01000
Br2140     Br  0.56775580  0.65223854  0.10159167    -0.01000
Br2141     Br  0.93771322  0.60974382  0.16481193    -0.01000
Br2142     Br  0.93477748  0.65520702  0.10329694    -0.01000
O2143       O  0.91566213  0.50063553  0.70026599    -0.75600
O2144       O  0.95226504  0.49673321  0.66363973    -0.54500
C2145       C  0.92422325  0.49867425  0.67194532     0.78200
O2146       O  0.00129688  0.58725238  0.80238376    -0.60200
O2147       O  0.00484329  0.54965496  0.83866860    -0.53200
C2148       C  0.00281550  0.57793918  0.83044121     0.70200
O2149       O  0.00032282  0.58621967  0.69865394    -0.74700
O2150       O  0.49796122  0.54705345  0.66343722    -0.55300
C2151       C  0.00043275  0.57587621  0.67088637     0.76200
O2152       O  0.91822973  0.50125342  0.80446082    -0.59900
O2153       O  0.95809098  0.00367048  0.84022026    -0.53000
C2154       C  0.92827027  0.50209642  0.83232118     0.72800
Zr2155     Zr  0.93836650  0.49930132  0.75214192     2.54700
O2156       O  0.89600648  0.53538708  0.75094312    -0.80400
O2157       O  0.90582555  0.95464881  0.75868790    -0.93800
Zr2158     Zr  0.00139341  0.56493358  0.75026150     2.64700
O2159       O  0.95970171  0.60180648  0.74824675    -0.98800
O2160       O  0.54054902  0.60430291  0.74829780    -0.80900
O2161       O  0.96863399  0.53201088  0.72124799    -0.84200
O2162       O  0.97021321  0.53317215  0.78109045    -2.18900
O2163       O  0.49749353  0.91520424  0.80515826    -0.67600
O2164       O  0.00536271  0.95597599  0.84141348    -0.52200
C2165       C  0.49793212  0.92579633  0.83302749     0.71200
O2166       O  0.58424427  0.99529065  0.69575880    -0.60500
O2167       O  0.54676328  0.49529368  0.66242576    -0.52500
C2168       C  0.57366723  0.99324911  0.66816259     0.73000
O2169       O  0.58843175  0.00000609  0.79867866    -0.71900
O2170       O  0.55174781  0.99942475  0.83593134    -0.50600
C2171       C  0.57970893  0.99960271  0.82677451     0.74400
O2172       O  0.49954991  0.91258921  0.70047920    -0.67200
O2173       O  0.49851276  0.95007546  0.66381126    -0.54400
C2174       C  0.49923923  0.92183997  0.67245175     0.72700
Zr2175     Zr  0.49927113  0.93497020  0.75208138     2.77500
O2176       O  0.54067368  0.89765938  0.75258243    -0.98000
O2177       O  0.96492003  0.89683633  0.75036184    -0.78800
Zr2178     Zr  0.56473455  0.99765180  0.74832688     2.70100
O2179       O  0.59887504  0.95350187  0.74869092    -0.80100
O2180       O  0.60305010  0.54194272  0.74677120    -0.99100
Zr2181     Zr  0.49967967  0.49861544  0.69183241     2.21500
Zr2182     Zr  0.00558782  0.00186480  0.81055455     2.11100
O2183       O  0.53338559  0.96668010  0.78028628    -2.47800
O2184       O  0.53093199  0.96555628  0.72031385    -0.79800
O2185       O  0.97264555  0.96769561  0.78270023    -0.72000
O2186       O  0.53304124  0.53233430  0.71952313    -2.33000
O2187       O  0.97063290  0.96653108  0.72265735    -2.29200
O2188       O  0.53510521  0.53398249  0.77955124    -0.73800
H2189       H  0.95785169  0.54586041  0.79437741     0.78200
H2190       H  0.54510583  0.54461671  0.70568529     0.79300
H2191       H  0.54585299  0.95413528  0.79350032     0.81500
H2192       H  0.95796882  0.95338136  0.70992248     0.79100
H2193       H  0.55929447  0.59330472  0.74206198     0.42200
H2194       H  0.59717999  0.55621751  0.76355749     0.41100
H2195       H  0.60190040  0.94843027  0.77060655     0.40800
H2196       H  0.55440255  0.90423390  0.73582388     0.38700
H2197       H  0.97603197  0.87708425  0.75181461     0.41900
H2198       H  0.91010004  0.94139166  0.74064476     0.36600
H2199       H  0.90161125  0.55050891  0.73499909     0.42800
H2200       H  0.94304949  0.59215403  0.76013516     0.39200
H2201       H  0.55228569  0.90216419  0.77163673     0.44100
H2202       H  0.88507935  0.96283734  0.75506300     0.42800
H2203       H  0.96661436  0.61938582  0.76112693     0.43000
H2204       H  0.62230828  0.53253827  0.75397042     0.43300
O2205       O  0.00240662  0.69556067  0.58608660    -0.75600
O2206       O  0.50122169  0.65989026  0.54727385    -0.54500
C2207       C  0.00128788  0.66771453  0.57570277     0.78200
O2208       O  0.91472854  0.80428544  0.50411355    -0.60200
O2209       O  0.95327247  0.83970368  0.50289503    -0.53200
C2210       C  0.92486256  0.83228400  0.50309413     0.70200
O2211       O  0.91224048  0.69831682  0.50641287    -0.74700
O2212       O  0.94985362  0.66232989  0.50591388    -0.55300
C2213       C  0.92166880  0.67016147  0.50685994     0.76200
O2214       O  0.00074533  0.79881479  0.58958662    -0.59900
O2215       O  0.00076480  0.83555659  0.55217738    -0.53000
C2216       C  0.00066671  0.82687582  0.58040587     0.72800
Zr2217     Zr  0.00191631  0.74801918  0.56574277     2.54700
O2218       O  0.96491982  0.74438592  0.60719142    -0.80400
O2219       O  0.54264950  0.74658806  0.60333987    -0.93800
Zr2220     Zr  0.93365335  0.75079777  0.50580464     2.64700
O2221       O  0.89919085  0.75333055  0.54953054    -0.98800
O2222       O  0.89352663  0.75020088  0.96456146    -0.80900
O2223       O  0.96693190  0.71949283  0.53525673    -0.84200
O2224       O  0.96817156  0.77936189  0.53685104    -2.18900
O2225       O  0.58681064  0.79936290  0.99684738    -0.67600
O2226       O  0.54673548  0.83753638  0.50283256    -0.52200
C2227       C  0.57735128  0.82741454  0.99650448     0.71200
O2228       O  0.49954326  0.70189720  0.91277788    -0.60500
O2229       O  0.49790505  0.66448890  0.94947931    -0.52500
C2230       C  0.49918336  0.67380167  0.92147331     0.73000
O2231       O  0.49570482  0.80415882  0.91702730    -0.71900
O2232       O  0.00134410  0.83850681  0.95540593    -0.50600
C2233       C  0.49715092  0.83192939  0.92756029     0.74400
O2234       O  0.58489206  0.69647352  0.50101760    -0.67200
O2235       O  0.54645832  0.66098893  0.50026520    -0.54400
C2236       C  0.57443884  0.66757068  0.99832962     0.72700
Zr2237     Zr  0.56415990  0.74908959  0.50187118     2.77500
O2238       O  0.59656746  0.74149434  0.95279446    -0.98000
O2239       O  0.60454456  0.75107972  0.54035934    -0.78800
Zr2240     Zr  0.49624275  0.75170236  0.93691493     2.70100
O2241       O  0.53036109  0.75541120  0.89307527    -0.80100
O2242       O  0.95681503  0.74890790  0.90224502    -0.99100
Zr2243     Zr  0.49949489  0.69035258  0.50078157     2.21500
Zr2244     Zr  0.99916535  0.80886013  0.50283177     2.11100
O2245       O  0.53134502  0.77948735  0.96768816    -2.47800
O2246       O  0.52972503  0.71994553  0.96575524    -0.79800
O2247       O  0.53285648  0.77834350  0.53553669    -0.72000
O2248       O  0.96696532  0.72099576  0.96887331    -2.33000
O2249       O  0.53281988  0.71860087  0.53396155    -2.29200
O2250       O  0.96741168  0.78071062  0.96920922    -0.73800
H2251       H  0.95659145  0.79270388  0.55029226     0.78200
H2252       H  0.95440677  0.70781932  0.95601223     0.79300
H2253       H  0.54333463  0.79271660  0.95465929     0.81500
H2254       H  0.54535510  0.70501306  0.54606675     0.79100
H2255       H  0.90250203  0.74121460  0.94569662     0.42200
H2256       H  0.94317139  0.76568431  0.90914341     0.41100
H2257       H  0.54655387  0.76997538  0.89971366     0.40800
H2258       H  0.59146879  0.75898619  0.93932117     0.38700
H2259       H  0.62348852  0.74713561  0.52866297     0.41900
H2260       H  0.55668792  0.76302089  0.59641679     0.36600
H2261       H  0.94919233  0.72986860  0.59936259     0.41000
H2262       H  0.90945991  0.76697348  0.56469377     0.39200
H2263       H  0.61742435  0.74590197  0.96046700     0.44100
H2264       H  0.55367254  0.72721597  0.59886342     0.42800
H2265       H  0.88155592  0.76543227  0.54217146     0.43000
H2266       H  0.96521554  0.75586598  0.88239436     0.43300
O2267       O  0.79889019  0.58577611  0.50138160    -0.75600
O2268       O  0.83475107  0.54800467  0.50450315    -0.54500
C2269       C  0.82665202  0.57640551  0.50368711     0.78200
O2270       O  0.69629581  0.00010923  0.58645284    -0.60200
O2271       O  0.66188245  0.49539210  0.54608589    -0.53200
C2272       C  0.66887348  0.49644537  0.57477362     0.70200
O2273       O  0.79948146  0.00374788  0.58941903    -0.74700
O2274       O  0.83551252  0.00086674  0.55182885    -0.55300
C2275       C  0.82770958  0.50166026  0.57829018     0.76200
O2276       O  0.69536011  0.58318126  0.49758282    -0.59900
O2277       O  0.66071633  0.54409681  0.50024404    -0.53000
C2278       C  0.66776736  0.57278836  0.49926969     0.72800
Zr2279     Zr  0.74783219  0.56317446  0.49785231     2.54700
O2280       O  0.74545541  0.60654257  0.53330589    -0.80400
O2281       O  0.74883242  0.60163557  0.95663151    -0.93800
Zr2282     Zr  0.74853368  0.00250774  0.56616531     2.64700
O2283       O  0.74824734  0.54220907  0.60325355    -0.98800
O2284       O  0.74826274  0.96277182  0.60513897    -0.80900
O2285       O  0.77750171  0.53317575  0.53224804    -0.84200
O2286       O  0.71866960  0.53217464  0.53154994    -2.18900
O2287       O  0.70240630  0.49642316  0.91089071    -0.67600
O2288       O  0.66561316  0.49789512  0.94799628    -0.52200
C2289       C  0.67375780  0.99654378  0.91917878     0.71200
O2290       O  0.80178710  0.91411845  0.50478137    -0.60500
O2291       O  0.83680827  0.95301759  0.50193238    -0.52500
C2292       C  0.83076139  0.92451056  0.99709244     0.73000
O2293       O  0.69894006  0.91285082  0.50703798    -0.71900
O2294       O  0.66369779  0.95046372  0.49925496    -0.50600
C2295       C  0.67187057  0.92169600  0.99561456     0.74400
O2296       O  0.80456291  0.49737375  0.91379269    -0.67200
O2297       O  0.83864849  0.00239865  0.95282976    -0.54400
C2298       C  0.83198653  0.00153528  0.92398038     0.72700
Zr2299     Zr  0.75265985  0.49732779  0.93437817     2.77500
O2300       O  0.75317151  0.95981833  0.89347861    -0.98000
O2301       O  0.75360545  0.53787326  0.89617630    -0.78800
Zr2302     Zr  0.75019869  0.93507772  0.50426893     2.70100
O2303       O  0.75256190  0.89694489  0.95613314    -0.80100
O2304       O  0.75058835  0.89773855  0.54571523    -0.99100
Zr2305     Zr  0.80827512  0.00061951  0.50267874     2.21500
Zr2306     Zr  0.69086059  0.49762594  0.49888092     2.11100
O2307       O  0.72261018  0.96561726  0.96413777    -2.47800
O2308       O  0.78140229  0.96715052  0.96625717    -0.79800
O2309       O  0.72122740  0.53048677  0.96429481    -0.72000
O2310       O  0.77908253  0.96883643  0.53614609    -2.33000
O2311       O  0.78039537  0.53163644  0.96645870    -2.29200
O2312       O  0.71983663  0.96805947  0.53495398    -0.73800
H2313       H  0.70512300  0.54485207  0.54367669     0.78200
H2314       H  0.79218442  0.95689787  0.54932359     0.79300
H2315       H  0.71015197  0.95256416  0.95108798     0.81500
H2316       H  0.79377659  0.54415651  0.95409378     0.79100
H2317       H  0.74920341  0.94318185  0.59342561     0.42200
H2318       H  0.75473886  0.87779861  0.53539442     0.41100
H2319       H  0.75784752  0.90909342  0.93774747     0.40800
H2320       H  0.73488596  0.94694392  0.89722887     0.38700
H2321       H  0.74199378  0.55497425  0.90564220     0.41900
H2322       H  0.76574754  0.59543835  0.94292597     0.36600
H2323       H  0.74488370  0.59695549  0.55385092     0.42800
H2324       H  0.72701939  0.54989234  0.60355327     0.39200
H2325       H  0.74843012  0.97099084  0.87432026     0.44100
H2326       H  0.75607869  0.62090801  0.96658166     0.42800
H2327       H  0.75073999  0.53148266  0.62309353     0.43000
H2328       H  0.76941749  0.90231388  0.55753357     0.43300
C2329       C  0.90342542  0.88327263  0.52176630    -0.02100
C2330       C  0.90186870  0.85748529  0.50167105     0.07600
C2331       C  0.88067718  0.85705898  0.97232849    -0.02200
C2332       C  0.85671796  0.87864965  0.97308289    -0.02200
C2333       C  0.85624644  0.90204143  0.99585015     0.07700
C2334       C  0.87917133  0.90447284  0.52303822    -0.02400
Br2335     Br  0.87902019  0.93622920  0.55445774    -0.01000
Br2336     Br  0.93867605  0.89060669  0.54734743    -0.01000
Br2337     Br  0.82537236  0.87679992  0.94187416    -0.01000
Br2338     Br  0.88385761  0.82865184  0.93814601    -0.01000
C2339       C  0.90227952  0.61960290  0.98376662    -0.02100
C2340       C  0.89833008  0.64500714  0.50795591     0.07600
C2341       C  0.87151530  0.64860811  0.52569701    -0.02200
C2342       C  0.84855516  0.62579359  0.52504317    -0.02200
C2343       C  0.85120508  0.59997651  0.50531992     0.07700
C2344       C  0.87879923  0.59734494  0.98284182    -0.02400
Br2345     Br  0.88160091  0.56365312  0.95374634    -0.01000
Br2346     Br  0.93761792  0.61363939  0.95796224    -0.01000
Br2347     Br  0.81453122  0.62912783  0.55297802    -0.01000
Br2348     Br  0.86705150  0.68316920  0.55356033    -0.01000
C2349       C  0.65019655  0.87138166  0.97670385    -0.02100
C2350       C  0.64697970  0.89833515  0.99468193     0.07600
C2351       C  0.61899666  0.90437608  0.51927362    -0.02200
C2352       C  0.59469423  0.88308735  0.51770836    -0.02200
C2353       C  0.60054831  0.85252868  0.99455319     0.07700
C2354       C  0.62736028  0.84850342  0.97685156    -0.02400
Br2355     Br  0.63232327  0.81311393  0.95019560    -0.01000
Br2356     Br  0.68462575  0.86677086  0.94939174    -0.01000
Br2357     Br  0.55645327  0.89416783  0.53684829    -0.01000
Br2358     Br  0.61492330  0.94013166  0.54541733    -0.01000
C2359       C  0.61781039  0.59359178  0.97923853    -0.02100
C2360       C  0.64256404  0.59570534  0.50097896     0.07600
C2361       C  0.64490806  0.62084824  0.52158328    -0.02200
C2362       C  0.62293021  0.64443656  0.52143623    -0.02200
C2363       C  0.59755624  0.64243294  0.99907562     0.07700
C2364       C  0.59512740  0.61663778  0.97916255    -0.02400
Br2365     Br  0.56176177  0.61343571  0.95019174    -0.01000
Br2366     Br  0.61289886  0.55818511  0.95256925    -0.01000
Br2367     Br  0.62688699  0.67767704  0.55092982    -0.01000
Br2368     Br  0.67628060  0.62122262  0.55284898    -0.01000
C2369       C  0.88234701  0.48008379  0.90361793    -0.02100
C2370       C  0.85771823  0.00303367  0.90153547     0.07600
C2371       C  0.85702493  0.02432722  0.87713612    -0.02200
C2372       C  0.88096190  0.02528971  0.85552491    -0.02200
C2373       C  0.90484045  0.50253593  0.85723227     0.07700
C2374       C  0.90589436  0.48109938  0.88152433    -0.02400
Br2375     Br  0.93838909  0.45141478  0.88367381    -0.01000
Br2376     Br  0.88367949  0.44945834  0.93550544    -0.01000
Br2377     Br  0.87952064  0.05556269  0.82328516    -0.01000
Br2378     Br  0.82394087  0.05343758  0.87378825    -0.01000
C2379       C  0.63455856  0.96955801  0.88651175    -0.02100
C2380       C  0.65005349  0.99682050  0.89517292     0.07600
C2381       C  0.64490285  0.52512242  0.88062041    -0.02200
C2382       C  0.62175684  0.52592750  0.85829653    -0.02200
C2383       C  0.60400876  0.99864048  0.85008995     0.07700
C2384       C  0.61253405  0.97029956  0.86292603    -0.02400
Br2385     Br  0.59675967  0.93243635  0.84541000    -0.01000
Br2386     Br  0.64402283  0.93115418  0.90613393    -0.01000
Br2387     Br  0.61393760  0.56342089  0.83671130    -0.01000
Br2388     Br  0.66880515  0.56157711  0.88973674    -0.01000
C2389       C  0.61506212  0.00906851  0.59275386    -0.02100
C2390       C  0.64358205  0.49447548  0.59739580     0.07600
C2391       C  0.64543806  0.47355780  0.62193368    -0.02200
C2392       C  0.62355943  0.47416888  0.64558647    -0.02200
C2393       C  0.59624703  0.99111276  0.64253936     0.07700
C2394       C  0.59125970  0.00650326  0.61433201    -0.02400
Br2395     Br  0.55210152  0.02427957  0.60413751    -0.01000
Br2396     Br  0.60841301  0.03368506  0.55651928    -0.01000
Br2397     Br  0.62865495  0.44673519  0.67987148    -0.01000
Br2398     Br  0.67592816  0.44150327  0.62123007    -0.01000
C2399       C  0.84955131  0.98228696  0.63012315    -0.02100
C2400       C  0.85240517  0.50114684  0.60221876     0.07600
C2401       C  0.88049055  0.51655812  0.59747296    -0.02200
C2402       C  0.90461198  0.51390882  0.61892938    -0.02200
C2403       C  0.90001340  0.49866360  0.64733065     0.07700
C2404       C  0.87288115  0.98172113  0.65262585    -0.02400
Br2405     Br  0.86845132  0.95420144  0.68699627    -0.01000
Br2406     Br  0.81535889  0.95442876  0.63406465    -0.01000
Br2407     Br  0.94393844  0.53078267  0.60789234    -0.01000
Br2408     Br  0.88576064  0.54339114  0.56260028    -0.01000
C2409       C  0.97558811  0.61980839  0.85920522    -0.02100
C2410       C  0.00188053  0.60155864  0.85508161     0.07600
C2411       C  0.52839955  0.62450214  0.85643727    -0.02200
C2412       C  0.52716228  0.64726596  0.87950438    -0.02200
C2413       C  0.50049387  0.65058115  0.89709899     0.07700
C2414       C  0.97468114  0.64199080  0.88291538    -0.02400
Br2415     Br  0.93806689  0.66556476  0.89017466    -0.01000
Br2416     Br  0.94071658  0.61445937  0.83266082    -0.01000
Br2417     Br  0.56141268  0.67470688  0.88629470    -0.01000
Br2418     Br  0.56301010  0.62291174  0.82950704    -0.01000
C2419       C  0.51673717  0.88213561  0.90650971    -0.02100
C2420       C  0.49601790  0.85725271  0.90481592     0.07600
C2421       C  0.98254487  0.85530761  0.87828510    -0.02200
C2422       C  0.98318955  0.87865109  0.85599927    -0.02200
C2423       C  0.49601195  0.90333001  0.85883048     0.07700
C2424       C  0.51480735  0.90638533  0.88530118    -0.02400
Br2425     Br  0.53625357  0.94418651  0.89492913    -0.01000
Br2426     Br  0.54983180  0.88203902  0.93587976    -0.01000
Br2427     Br  0.95350854  0.87745974  0.82311463    -0.01000
Br2428     Br  0.95241948  0.82304948  0.87452168    -0.01000
C2429       C  0.97386492  0.86103944  0.61799185    -0.02100
C2430       C  0.00114840  0.85101688  0.60420644     0.07600
C2431       C  0.52763326  0.86312767  0.61487748    -0.02200
C2432       C  0.52737990  0.88742270  0.63635754    -0.02200
C2433       C  0.49947307  0.89791858  0.64845356     0.07700
C2434       C  0.97454977  0.88549474  0.63943746    -0.02400
Br2435     Br  0.93712640  0.90040077  0.65725533    -0.01000
Br2436     Br  0.93593020  0.84017105  0.60866097    -0.01000
Br2437     Br  0.56516609  0.90634673  0.64904277    -0.01000
Br2438     Br  0.56578556  0.84601327  0.60078488    -0.01000
C2439       C  0.52773485  0.63369436  0.61351160    -0.02100
C2440       C  0.00150617  0.64279855  0.59867408     0.07600
C2441       C  0.97374200  0.62970549  0.60831835    -0.02200
C2442       C  0.97327463  0.60898938  0.63302079    -0.02200
C2443       C  0.00082887  0.59893890  0.64619890     0.07700
C2444       C  0.52699568  0.61183712  0.63722292    -0.02400
Br2445     Br  0.56402623  0.60155697  0.65897585    -0.01000
Br2446     Br  0.56586108  0.65236155  0.60193428    -0.01000
Br2447     Br  0.93491104  0.59722455  0.65115853    -0.01000
Br2448     Br  0.93632241  0.64032291  0.58773745    -0.01000
loop_ 
_geom_bond_atom_site_label_1 
_geom_bond_atom_site_label_2 
_geom_bond_distance 
_geom_bond_site_symmetry_2 
_ccdc_geom_bond_type 
O1          Zr13   2.459   1_545  S
O1            C3   1.291   1_545  A
O2        Zr1263   2.432       .  S
O2            C3   1.287       .  A
C3          C261   1.501       .  S
O4          Zr16   2.457       .  S
O4            C6   1.290       .  A
O5         Zr652   2.411       .  S
O5            C6   1.284       .  A
C6          C268   1.476       .  S
O7          Zr16   2.440       .  S
O7            C9   1.286       .  A
O8          Zr39   2.458   1_445  S
O8         C1233   1.293       .  A
C9         O1232   1.290       .  A
C9          C301   1.478       .  S
O10         Zr13   2.444   1_545  S
O10          C12   1.289       .  A
O11         Zr40   2.448       .  S
O11         C624   1.291       .  A
C12         O623   1.291       .  A
C12         C231   1.493       .  S
Zr13         O14   2.433   1_565  S
Zr13        O627   2.431       .  S
Zr13         O19   2.372   1_565  S
Zr13         O20   2.375   1_565  S
Zr13        O655   2.374       .  S
Zr13        O657   2.367       .  S
O14          H57   0.990       .  S
O15        Zr625   2.434       .  S
O15          H56   0.990       .  S
O15          H60   0.989       .  S
Zr16         O17   2.437       .  S
Zr16       O1242   2.437       .  S
Zr16         O20   2.374       .  S
Zr16         O19   2.380       .  S
Zr16       O1268   2.377       .  S
Zr16       O1270   2.370       .  S
O17          H58   0.989       .  S
O17          H61   0.990       .  S
O18       Zr1240   2.436       .  S
O18          H51   0.990       .  S
O19       Zr1263   2.385   1_545  S
O20        Zr652   2.392       .  S
O20          H47   0.965       .  S
O21         Zr33   2.473   1_655  S
O21          C23   1.295       .  A
O22         Zr40   2.423       .  S
O22        C1247   1.285       .  A
C23        O1246   1.285   1_655  A
C23         C281   1.503       .  S
O24         Zr36   2.457       .  S
O24          C26   1.291       .  A
O25         Zr39   2.433   1_455  S
O25         C638   1.287       .  A
C26         O637   1.287       .  A
C26         C251   1.501       .  S
O27         Zr36   2.431       .  S
O27          C29   1.285       .  A
O28       Zr1264   2.446       .  S
O28          C29   1.291       .  A
C29         C241   1.474       .  S
O30         Zr33   2.448       .  S
O30          C32   1.289   1_455  A
O31        Zr651   2.417       .  S
O31          C32   1.285       .  A
C32         C291   1.467       .  S
Zr33         O34   2.437       .  S
Zr33       O1259   2.435   1_455  S
Zr33         O41   2.363       .  S
Zr33         O42   2.375       .  S
Zr33       O1269   2.383   1_455  S
Zr33       O1267   2.367   1_455  S
O34          H54   0.990       .  S
O34          H59   0.990       .  S
O35       Zr1257   2.434       .  S
O35          H55   0.990       .  S
Zr36         O37   2.435       .  S
Zr36        O650   2.434       .  S
Zr36         O42   2.365       .  S
Zr36         O41   2.380       .  S
Zr36        O658   2.384       .  S
Zr36        O656   2.366       .  S
O37          H53   0.990       .  S
O38        Zr648   2.435   1_545  S
O38          H52   0.990       .  S
O38          H62   0.990       .  S
Zr39       O1226   2.439       .  S
Zr39        O643   2.430       .  S
Zr39         O44   2.385   1_665  S
Zr39       O1243   2.381   1_565  S
Zr39        O654   2.388   1_655  S
Zr39       O1881   2.388       .  S
Zr40        O617   2.425       .  S
Zr40       O1252   2.443       .  S
Zr40         O43   2.378       .  S
Zr40        O632   2.388       .  S
Zr40       O1265   2.387       .  S
Zr40       O1882   2.387       .  S
O41       Zr1264   2.389       .  S
O41          H49   0.965       .  S
O42        Zr651   2.383   1_455  S
O43        Zr625   2.375       .  S
O43       Zr1257   2.362       .  S
O44       Zr1240   2.375       .  S
O44        Zr648   2.368   1_545  S
O44          H48   0.966       .  S
O45        Zr625   2.365       .  S
O45       Zr1257   2.382       .  S
O45       Zr1875   2.387       .  S
O45          H50   0.966       .  S
O46       Zr1240   2.366       .  S
O46        Zr648   2.380   1_545  S
O46       Zr1876   2.385       .  S
O63         Zr75   2.442       .  S
O63          C65   1.287       .  A
O64        Zr101   2.422   1_455  S
O64        C1289   1.285       .  A
C65        O1288   1.285       .  A
C65         C298   1.472       .  S
O66         Zr78   2.467       .  S
O66          C68   1.293       .  A
O67        Zr102   2.423       .  S
O67          C68   1.285       .  A
C68         C188   1.497   1_554  S
O69         Zr78   2.446       .  S
O69          C71   1.288       .  A
O70       Zr1325   2.429       .  S
O70          C71   1.286       .  A
C71         C198   1.502       .  S
O72         Zr75   2.415       .  S
O72          C74   1.281       .  A
O73        Zr102   2.435       .  S
O73          C74   1.288       .  A
C74         C288   1.461       .  S
Zr75         O76   2.435       .  S
Zr75       O1301   2.438       .  S
Zr75         O81   2.366       .  S
Zr75         O82   2.383       .  S
Zr75       O1329   2.377       .  S
Zr75       O1331   2.360       .  S
O76         H119   0.990       .  S
O77       Zr1299   2.437       .  S
O77         H118   0.990       .  S
O77         H122   0.990       .  S
Zr78         O79   2.437       .  S
Zr78        O386   2.434   1_554  S
Zr78         O82   2.365       .  S
Zr78         O81   2.380       .  S
Zr78        O412   2.379   1_554  S
Zr78        O414   2.370   1_554  S
O79         H120   0.990       .  S
O79         H123   0.990       .  S
O80        Zr384   2.434       .  S
O80         H113   0.990       .  S
O81       Zr1325   2.378       .  S
O82        Zr102   2.380       .  S
O82         H109   0.967       .  S
O83        Zr401   2.463       .  S
O83          C85   1.293       .  A
O84       Zr1326   2.405       .  S
O84         C391   1.282       .  A
C85         O390   1.284       .  A
C85         C211   1.495       .  S
O86         Zr98   2.416       .  S
O86          C88   1.283       .  A
O87        Zr407   2.429       .  S
O87          C88   1.288       .  A
C88         C271   1.462       .  S
O89         Zr98   2.454       .  S
O89          C91   1.290       .  A
O90        Zr408   2.435       .  S
O90        C1315   1.288       .  A
C91        O1314   1.290       .  A
C91         C278   1.498       .  S
O92         Zr95   2.456       .  S
O92         C400   1.291       .  A
O93        Zr101   2.431   1_455  S
O93         C400   1.286       .  A
C94         O398   1.293       .  A
C94         O399   1.287       .  A
C94         C221   1.498       .  S
Zr95        O389   2.460       .  S
Zr95         O97   2.432       .  S
Zr95        O402   2.432   1_554  S
Zr95        O107   2.372       .  S
Zr95        O105   2.374       .  S
Zr95        O409   2.369   1_554  S
Zr95        O410   2.371   1_554  S
O96        Zr401   2.433       .  S
O96         H116   0.990       .  S
O96         H121   0.989       .  S
O97         H117   0.989       .  S
Zr98         O99   2.435   1_655  S
Zr98       O1324   2.433       .  S
Zr98        O104   2.380   1_655  S
Zr98        O103   2.365   1_655  S
Zr98       O1332   2.359       .  S
Zr98       O1330   2.372       .  S
O99         H115   0.990       .  S
O100      Zr1322   2.432       .  S
O100        H114   0.990       .  S
O100        H124   0.990       .  S
Zr101      O1294   2.434       .  S
Zr101       O393   2.424   1_654  S
Zr101       O107   2.383   1_655  S
Zr101      O1305   2.382       .  S
Zr101       O410   2.380   1_654  S
Zr101      O1636   2.388   1_554  S
Zr102      O1308   2.406   1_554  S
Zr102       O396   2.424   1_554  S
Zr102      O1633   2.385   1_554  S
Zr102      O1329   2.389       .  S
Zr102       O414   2.377   1_554  S
O103       Zr401   2.374       .  S
O103      Zr1632   2.383   1_455  S
O103        H111   0.966       .  S
O104       Zr401   2.367       .  S
O104       Zr407   2.382   1_455  S
O105      Zr1299   2.379       .  S
O105      Zr1326   2.387       .  S
O106       Zr384   2.375       .  S
O106      Zr1322   2.377       .  S
O106      Zr1631   2.391       .  S
O106        H110   0.967       .  S
O107      Zr1299   2.362       .  S
O107        H112   0.966       .  S
O108       Zr384   2.372       .  S
O108      Zr1322   2.370       .  S
O108       Zr408   2.378       .  S
O125       Zr137   2.426       .  S
O125        C127   1.284       .  A
O126       Zr775   2.438   1_545  S
O126        C127   1.289       .  A
C127        C201   1.491       .  S
O128       Zr140   2.456       .  S
O128        C742   1.290       .  A
O129       Zr164   2.431   1_554  S
O129        C130   1.287       .  A
C130        O740   1.290       .  A
C130        C248   1.498       .  S
O131       Zr140   2.459       .  S
O131        C745   1.292       .  A
O132       Zr163   2.422   1_554  S
O132        C745   1.286       .  A
C133        O743   1.290       .  A
C133        O744   1.288   1_545  A
C133        C258   1.497       .  S
O134       Zr137   2.445   1_556  S
O134        C136   1.288       .  A
O135       Zr164   2.434   1_544  S
O135        C136   1.287   1_554  A
C136        C218   1.499   1_556  S
Zr137       O138   2.428       .  S
Zr137       O445   2.434   1_554  S
Zr137       O143   2.373       .  S
Zr137       O144   2.370       .  S
Zr137       O473   2.364   1_554  S
Zr137       O475   2.371   1_554  S
O138        H181   0.990       .  S
O139       Zr443   2.434       .  S
O139        H180   0.990       .  S
O139        H184   0.990       .  S
Zr140       O142   2.429       .  S
Zr140       O753   2.435       .  S
Zr140       O168   2.372       .  S
Zr140       O170   2.370       .  S
Zr140       O756   2.375       .  S
Zr140       O755   2.371       .  S
O141       Zr752   2.434   1_545  S
O141        H182   0.990       .  S
O141        H185   0.990       .  S
O142        H175   0.990       .  S
O143       Zr752   2.371   1_545  S
O143       Zr775   2.374   1_545  S
O144       Zr164   2.381   1_544  S
O144       Zr752   2.379   1_545  S
O144        H171   0.967       .  S
O145       Zr157   2.435       .  S
O145        C759   1.286       .  A
O146       Zr470   2.425       .  S
O146        C759   1.286       .  A
C147        O757   1.286       .  A
C147        O758   1.286       .  A
C147        C238   1.468       .  S
O148       Zr160   2.466   1_554  S
O148        C456   1.293   1_554  A
O149       Zr163   2.427       .  S
O149        C456   1.287       .  A
C150        O454   1.291       .  A
C150        O455   1.285       .  A
C150        C191   1.486       .  S
O151       Zr160   2.463   1_554  S
O151        C459   1.292   1_554  A
O152       Zr776   2.401       .  S
O152        C459   1.282       .  A
C153        O457   1.292       .  A
C153        O458   1.283       .  A
C153        C208   1.491       .  S
O154       Zr157   2.458   1_545  S
O154        C768   1.291       .  A
O155       Zr469   2.447       .  S
O155        C156   1.290       .  A
C156        O766   1.291       .  A
C156        C228   1.499       .  S
Zr157       O159   2.436   1_565  S
Zr157       O770   2.433       .  S
Zr157       O169   2.363   1_565  S
Zr157       O167   2.377   1_565  S
Zr157       O777   2.382       .  S
Zr157       O778   2.371       .  S
O158       Zr769   2.437       .  S
O158        H178   0.990       .  S
O158        H183   0.990       .  S
O159        H179   0.990       .  S
Zr160       O162   2.436   1_556  S
Zr160       O467   2.432       .  S
Zr160       O170   2.376   1_556  S
Zr160       O168   2.374   1_556  S
Zr160       O472   2.378       .  S
Zr160       O471   2.371       .  S
O161       Zr466   2.431       .  S
O161        H177   0.990       .  S
O162        H176   0.990       .  S
O162        H186   0.991       .  S
Zr163       O738   2.429   1_556  S
Zr163       O461   2.433       .  S
Zr163       O168   2.389   1_556  S
Zr163       O755   2.378   1_556  S
Zr163       O472   2.381       .  S
Zr163      O1087   2.380       .  S
Zr164       O452   2.437       .  S
Zr164       O764   2.406       .  S
Zr164      O1083   2.388       .  S
Zr164       O473   2.378   1_565  S
Zr164       O782   2.384   1_556  S
O165       Zr769   2.381       .  S
O165       Zr466   2.371       .  S
O165      Zr1082   2.387       .  S
O165        H173   0.965       .  S
O166       Zr769   2.372       .  S
O166       Zr466   2.378       .  S
O166       Zr469   2.379       .  S
O167       Zr443   2.366       .  S
O167       Zr470   2.382   1_545  S
O168        H172   0.966       .  S
O169       Zr443   2.381       .  S
O169      Zr1081   2.390       .  S
O169        H174   0.967       .  S
O170       Zr776   2.381   1_554  S
C187        C188   1.417   1_554  A
C187        C192   1.414       .  A
C187       Br194   1.930       .  S
C188        C495   1.413       .  A
C189        C190   1.409       .  A
C189        C494   1.413       .  A
C189       Br196   1.931       .  S
C190        C191   1.411       .  A
C190       Br195   1.931       .  S
C191        C498   1.414       .  A
C192        C497   1.416   1_554  A
C192       Br193   1.933       .  S
C197        C202   1.410       .  A
C197        C504   1.414       .  A
C197       Br204   1.935       .  S
C198        C199   1.421       .  A
C198        C503   1.421   1_554  A
C199        C200   1.412       .  A
C199       Br206   1.937       .  S
C200        C201   1.417       .  A
C200       Br205   1.935       .  S
C201        C508   1.411   1_554  A
C202        C507   1.415       .  A
C202       Br203   1.931       .  S
C207        C208   1.413       .  A
C207        C212   1.408       .  A
C207       Br214   1.933       .  S
C208        C515   1.418       .  A
C209        C210   1.408       .  A
C209        C514   1.415   1_554  A
C209       Br216   1.932       .  S
C210        C517   1.416   1_554  A
C210       Br215   1.934       .  S
C211        C212   1.414       .  A
C211        C516   1.418       .  A
C212       Br213   1.930       .  S
C217        C222   1.417       .  A
C217        C524   1.421       .  A
C217       Br224   1.932       .  S
C218        C219   1.417       .  A
C218        C523   1.416   1_554  A
C219        C220   1.410       .  A
C219       Br226   1.935       .  S
C220        C527   1.420       .  A
C220       Br225   1.937       .  S
C221        C222   1.416       .  A
C221        C526   1.412       .  A
C222       Br223   1.933       .  S
C227        C232   1.414       .  A
C227        C840   1.415   1_565  A
C227       Br234   1.931       .  S
C228        C229   1.415       .  A
C228        C839   1.415       .  A
C229        C230   1.413       .  A
C229       Br236   1.931       .  S
C230        C843   1.415       .  A
C230       Br235   1.933       .  S
C231        C232   1.413   1_545  A
C231        C842   1.414       .  A
C232       Br233   1.927       .  S
C237        C238   1.409       .  A
C237        C242   1.409       .  A
C237       Br244   1.927       .  S
C238        C851   1.406       .  A
C239        C240   1.405       .  A
C239        C850   1.406   1_545  A
C239       Br246   1.933       .  S
C240        C853   1.408       .  A
C240       Br245   1.916       .  S
C241        C242   1.409       .  A
C241        C852   1.407       .  A
C242       Br243   1.930       .  S
C247        C252   1.412       .  A
C247        C860   1.415       .  A
C247       Br254   1.933       .  S
C248        C249   1.415       .  A
C248        C859   1.417   1_565  A
C249        C250   1.411       .  A
C249       Br256   1.933       .  S
C250        C863   1.418       .  A
C250       Br255   1.935       .  S
C251        C252   1.419       .  A
C251        C862   1.417       .  A
C252       Br253   1.933       .  S
C257        C262   1.411       .  A
C257        C870   1.412       .  A
C257       Br264   1.934       .  S
C258        C259   1.415       .  A
C258        C869   1.415   1_545  A
C259        C260   1.413       .  A
C259       Br266   1.933       .  S
C260        C261   1.419   1_545  A
C260       Br265   1.931       .  S
C261        C874   1.417       .  A
C262        C873   1.418       .  A
C262       Br263   1.928       .  S
C267        C268   1.412       .  A
C267        C272   1.407       .  A
C267       Br274   1.927       .  S
C268       C1493   1.411       .  A
C269        C270   1.403       .  A
C269       C1492   1.410       .  A
C269       Br276   1.922       .  S
C270        C271   1.406   1_455  A
C270       Br275   1.934       .  S
C271       C1496   1.404       .  A
C272       C1495   1.407       .  A
C272       Br273   1.932       .  S
C277        C278   1.414   1_455  A
C277        C282   1.414       .  A
C277       Br284   1.931       .  S
C278       C1503   1.415       .  A
C279        C280   1.410       .  A
C279       C1502   1.410       .  A
C279       Br286   1.930       .  S
C280       C1505   1.415       .  A
C280       Br285   1.930       .  S
C281        C282   1.420   1_655  A
C281       C1504   1.415       .  A
C282       Br283   1.932       .  S
C287        C288   1.408       .  A
C287        C292   1.404       .  A
C287       Br294   1.931       .  S
C288       C1513   1.405       .  A
C289        C290   1.403       .  A
C289       C1512   1.405   1_455  A
C289       Br296   1.932       .  S
C290        C291   1.407   1_455  A
C290       Br295   1.924       .  S
C291       C1516   1.408       .  A
C292       C1515   1.407       .  A
C292       Br293   1.930       .  S
C297        C302   1.410       .  A
C297       C1522   1.410       .  A
C297       Br304   1.929       .  S
C298        C299   1.407       .  A
C298       C1521   1.407       .  A
C299        C300   1.408       .  A
C299       Br306   1.930       .  S
C300        C301   1.411       .  A
C300       Br305   1.928       .  S
C301       C1526   1.411       .  A
C302       C1525   1.409       .  A
C302       Br303   1.929       .  S
O307       Zr319   2.470       .  S
O307        C309   1.294       .  A
O308      Zr1569   2.430       .  S
O308        C309   1.287   1_565  A
C309        C567   1.500       .  S
O310       Zr322   2.450       .  S
O310        C312   1.289       .  A
O311       Zr958   2.412       .  S
O311        C312   1.284       .  A
C312        C574   1.477       .  S
O313       Zr322   2.434       .  S
O313        C315   1.286       .  A
O314       Zr345   2.448   1_645  S
O314       C1539   1.291       .  A
C315       O1538   1.291       .  A
C315        C607   1.478       .  S
O316       Zr319   2.450       .  S
O316        C318   1.290       .  A
O317       Zr346   2.446       .  S
O317        C930   1.291       .  A
C318        O929   1.292       .  A
C318        C537   1.500       .  S
Zr319       O320   2.433       .  S
Zr319       O933   2.432   1_545  S
Zr319       O325   2.371       .  S
Zr319       O326   2.379       .  S
Zr319       O961   2.374   1_545  S
Zr319       O963   2.370   1_545  S
O320        H363   0.990       .  S
O321       Zr931   2.433       .  S
O321        H362   0.989       .  S
O321        H366   0.990       .  S
Zr322       O323   2.435       .  S
Zr322      O1548   2.436       .  S
Zr322       O326   2.374       .  S
Zr322       O325   2.379       .  S
Zr322      O1574   2.373       .  S
Zr322      O1576   2.366       .  S
O323        H364   0.990       .  S
O323        H367   0.990       .  S
O324      Zr1546   2.434       .  S
O324        H357   0.990       .  S
O325      Zr1569   2.380   1_545  S
O326       Zr958   2.386       .  S
O326        H353   0.965       .  S
O327       Zr339   2.469       .  S
O327        C329   1.294       .  A
O328       Zr346   2.424       .  S
O328       C1553   1.285       .  A
C329       O1552   1.287       .  A
C329        C587   1.502   1_455  S
O330       Zr342   2.451       .  S
O330        C332   1.289       .  A
O331       Zr345   2.444       .  S
O331        C944   1.290       .  A
C332        O943   1.286       .  A
C332        C557   1.495       .  S
O333       Zr342   2.418       .  S
O333        C335   1.282       .  A
O334      Zr1570   2.450       .  S
O334        C335   1.292       .  A
C335        C547   1.470       .  S
O336       Zr339   2.449       .  S
O336        C338   1.289       .  A
O337       Zr957   2.421   1_655  S
O337        C338   1.285   1_655  A
C338        C597   1.469       .  S
Zr339       O340   2.437       .  S
Zr339      O1565   2.433   1_455  S
Zr339       O347   2.364       .  S
Zr339       O348   2.377       .  S
Zr339      O1575   2.382   1_455  S
Zr339      O1573   2.367   1_455  S
O340        H360   0.990       .  S
O340        H365   0.990       .  S
O341      Zr1563   2.433       .  S
O341        H361   0.990       .  S
Zr342       O343   2.433       .  S
Zr342       O956   2.435       .  S
Zr342       O348   2.364       .  S
Zr342       O347   2.381       .  S
Zr342       O964   2.384       .  S
Zr342       O962   2.361       .  S
O343        H359   0.990       .  S
O344       Zr954   2.435       .  S
O344        H358   0.990       .  S
O344        H368   0.991       .  S
Zr345      O1532   2.439   1_455  S
Zr345       O949   2.429       .  S
Zr345      O1549   2.387   1_465  S
Zr345       O960   2.388       .  S
Zr345       O350   2.387   1_565  S
Zr345      O2187   2.394   1_455  S
Zr346       O923   2.434       .  S
Zr346      O1558   2.449       .  S
Zr346       O938   2.393       .  S
Zr346      O1571   2.391       .  S
Zr346       O349   2.386       .  S
Zr346      O2188   2.386       .  S
O347      Zr1570   2.386       .  S
O347        H355   0.965       .  S
O348       Zr957   2.381       .  S
O349       Zr931   2.374       .  S
O349      Zr1563   2.366       .  S
O350      Zr1546   2.381       .  S
O350       Zr954   2.366       .  S
O350        H354   0.966       .  S
O351       Zr931   2.365       .  S
O351      Zr1563   2.378       .  S
O351      Zr2181   2.391       .  S
O351        H356   0.966       .  S
O352      Zr1546   2.369       .  S
O352       Zr954   2.383       .  S
O352      Zr2182   2.386       .  S
O369       Zr381   2.443       .  S
O369        C371   1.287       .  A
O370       Zr407   2.432       .  S
O370       C1595   1.287       .  A
C371       O1594   1.286       .  A
C371        C604   1.474       .  S
O372       Zr384   2.462       .  S
O372        C374   1.292       .  A
O373       Zr408   2.418       .  S
O373        C374   1.284       .  A
C374        C494   1.495       .  S
O375       Zr384   2.440       .  S
O375        C377   1.288       .  A
O376      Zr1631   2.432       .  S
O376        C377   1.288       .  A
C377        C504   1.490       .  S
O378       Zr381   2.415       .  S
O378        C380   1.282       .  A
O379       Zr408   2.432       .  S
O379        C380   1.288       .  A
C380        C594   1.461       .  S
Zr381       O382   2.434       .  S
Zr381      O1607   2.438       .  S
Zr381       O387   2.366       .  S
Zr381       O388   2.380       .  S
Zr381      O1635   2.377       .  S
Zr381      O1637   2.361       .  S
O382        H425   0.990       .  S
O383      Zr1605   2.434       .  S
O383        H424   0.990       .  S
O383        H428   0.990       .  S
Zr384       O385   2.435       .  S
Zr384       O388   2.361       .  S
Zr384       O387   2.379       .  S
O385        H426   0.990       .  S
O385        H429   0.990       .  S
O386        H419   0.990       .  S
O387      Zr1631   2.379       .  S
O388       Zr408   2.383       .  S
O388        H415   0.967       .  S
O389        C391   1.292       .  A
O390      Zr1632   2.414   1_455  S
C391        C517   1.486   1_554  S
O392       Zr404   2.417   1_455  S
O392        C394   1.283       .  A
O393        C394   1.286       .  A
C394        C577   1.461       .  S
O395       Zr404   2.449       .  S
O395        C397   1.290       .  A
O396       C1621   1.286       .  A
C397       O1620   1.288   1_655  A
C397        C584   1.492       .  S
O398       Zr401   2.467       .  S
O399       Zr407   2.429   1_455  S
C400        C527   1.507       .  S
Zr401       O403   2.433       .  S
Zr401       O413   2.372       .  S
Zr401       O411   2.381       .  S
O402        H422   0.989       .  S
O402        H427   0.990       .  S
O403        H423   0.990       .  S
Zr404       O405   2.435   1_655  S
Zr404      O1630   2.433       .  S
Zr404       O410   2.372   1_655  S
Zr404       O409   2.365   1_655  S
Zr404      O1638   2.367       .  S
Zr404      O1636   2.373       .  S
O405        H421   0.990       .  S
O406      Zr1628   2.432       .  S
O406        H420   0.989       .  S
O406        H430   0.990       .  S
Zr407      O1600   2.413       .  S
Zr407      O1611   2.380       .  S
Zr407      O1330   2.387       .  S
Zr407       O413   2.378   1_655  S
Zr408      O1614   2.402       .  S
Zr408      O1327   2.384       .  S
Zr408      O1635   2.389       .  S
O409      Zr1326   2.380   1_556  S
O409        H417   0.966       .  S
O411      Zr1605   2.376       .  S
O411      Zr1632   2.388   1_455  S
O412      Zr1628   2.375       .  S
O412      Zr1325   2.388   1_556  S
O412        H416   0.968       .  S
O413      Zr1605   2.361       .  S
O413        H418   0.966       .  S
O414      Zr1628   2.368       .  S
O431       Zr443   2.451       .  S
O431        C433   1.291       .  A
O432      Zr1081   2.428       .  S
O432        C433   1.288       .  A
C433        C507   1.490       .  S
O434       Zr446   2.452       .  S
O434       C1048   1.290       .  A
O435       Zr470   2.433       .  S
O435        C436   1.288       .  A
C436       O1046   1.289       .  A
C436        C554   1.492       .  S
O437       Zr446   2.453       .  S
O437       C1051   1.290       .  A
O438       Zr469   2.437       .  S
O438       C1051   1.289       .  A
C439       O1049   1.291       .  A
C439       O1050   1.286   1_545  A
C439        C564   1.493       .  S
O440       Zr443   2.472       .  S
O440        C442   1.293       .  A
O441       Zr470   2.425   1_545  S
O441        C442   1.285       .  A
C442        C524   1.503       .  S
Zr443       O444   2.432       .  S
Zr443       O449   2.382       .  S
Zr443       O450   2.365       .  S
O444        H487   0.989       .  S
O445        H486   0.990       .  S
O445        H490   0.990       .  S
Zr446      O1059   2.435       .  S
Zr446       O448   2.430       .  S
Zr446      O1062   2.374       .  S
Zr446      O1061   2.375       .  S
Zr446       O474   2.372       .  S
Zr446       O476   2.371       .  S
O447      Zr1058   2.433   1_545  S
O447        H488   0.990       .  S
O447        H491   0.990       .  S
O448        H481   0.990       .  S
O449      Zr1058   2.369   1_545  S
O449      Zr1081   2.388       .  S
O450      Zr1058   2.372   1_545  S
O450       Zr470   2.383   1_545  S
O450        H477   0.966       .  S
O451       Zr463   2.430   1_545  S
O451       C1065   1.285       .  A
O452       C1065   1.288   1_565  A
C453       O1063   1.285       .  A
C453       O1064   1.286       .  A
C453        C544   1.467       .  S
O454       Zr466   2.457       .  S
O455       Zr469   2.414       .  S
C456        C497   1.496       .  S
O457       Zr466   2.460       .  S
O458      Zr1082   2.412       .  S
C459        C514   1.483       .  S
O460       Zr463   2.453       .  S
O460       C1074   1.290       .  A
O461        C462   1.288       .  A
C462       O1072   1.290       .  A
C462        C534   1.495       .  S
Zr463      O1076   2.436       .  S
Zr463       O465   2.432   1_565  S
Zr463      O1083   2.373       .  S
Zr463      O1084   2.367       .  S
Zr463       O475   2.367   1_565  S
Zr463       O473   2.376   1_565  S
O464      Zr1075   2.434       .  S
O464        H484   0.990       .  S
O464        H489   0.990       .  S
O465        H485   0.990       .  S
Zr466       O468   2.435       .  S
Zr466       O476   2.369       .  S
Zr466       O474   2.372       .  S
O467        H483   0.989       .  S
O468        H482   0.990       .  S
O468        H492   0.990       .  S
Zr469      O1044   2.416       .  S
Zr469      O1061   2.382       .  S
Zr469       O474   2.386       .  S
Zr469       O781   2.385       .  S
Zr470      O1070   2.416       .  S
Zr470       O777   2.387       .  S
Zr470      O1088   2.382       .  S
O471      Zr1075   2.372       .  S
O471       Zr776   2.388       .  S
O471        H479   0.965       .  S
O472      Zr1075   2.371       .  S
O474        H478   0.966       .  S
O475       Zr775   2.380   1_546  S
O475        H480   0.966       .  S
O476      Zr1082   2.378       .  S
C493        C494   1.418       .  A
C493        C498   1.411       .  A
C493       Br500   1.932       .  S
C495        C496   1.412       .  A
C495       Br502   1.932       .  S
C496        C497   1.414       .  A
C496       Br501   1.930       .  S
C498       Br499   1.934       .  S
C503        C508   1.407       .  A
C503       Br510   1.935       .  S
C504        C505   1.416       .  A
C505        C506   1.410       .  A
C505       Br512   1.933       .  S
C506        C507   1.414       .  A
C506       Br511   1.934       .  S
C508       Br509   1.937       .  S
C513        C514   1.411       .  A
C513        C518   1.406       .  A
C513       Br520   1.932       .  S
C515        C516   1.411       .  A
C515       Br522   1.932       .  S
C516       Br521   1.937       .  S
C517        C518   1.411       .  A
C518       Br519   1.930       .  S
C523        C528   1.414       .  A
C523       Br530   1.936       .  S
C524        C525   1.416       .  A
C525        C526   1.411       .  A
C525       Br532   1.931       .  S
C526       Br531   1.931       .  S
C527        C528   1.423   1_554  A
C528       Br529   1.937       .  S
C533       C1146   1.411   1_565  A
C533        C538   1.414       .  A
C533       Br540   1.929       .  S
C534       C1145   1.415       .  A
C534        C535   1.415       .  A
C535        C536   1.411       .  A
C535       Br542   1.932       .  S
C536       C1149   1.416       .  A
C536       Br541   1.935       .  S
C537       C1148   1.416       .  A
C537        C538   1.416   1_545  A
C538       Br539   1.924       .  S
C543        C544   1.409       .  A
C543        C548   1.406       .  A
C543       Br550   1.926       .  S
C544       C1157   1.408       .  A
C545       C1156   1.411       .  A
C545        C546   1.408       .  A
C545       Br552   1.931       .  S
C546       C1159   1.410       .  A
C546       Br551   1.930       .  S
C547       C1158   1.408       .  A
C547        C548   1.407       .  A
C548       Br549   1.931       .  S
C553       C1166   1.417       .  A
C553        C558   1.413       .  A
C553       Br560   1.934       .  S
C554       C1165   1.415   1_565  A
C554        C555   1.413       .  A
C555        C556   1.410       .  A
C555       Br562   1.935       .  S
C556       C1169   1.418       .  A
C556       Br561   1.933       .  S
C557       C1168   1.416       .  A
C557        C558   1.417       .  A
C558       Br559   1.933       .  S
C563       C1176   1.415       .  A
C563        C568   1.415       .  A
C563       Br570   1.932       .  S
C564       C1175   1.413   1_545  A
C564        C565   1.414       .  A
C565        C566   1.414       .  A
C565       Br572   1.935       .  S
C566        C567   1.418       .  A
C566       Br571   1.927       .  S
C567       C1180   1.415   1_545  A
C568       C1179   1.418       .  A
C568       Br569   1.930       .  S
C573        C574   1.413       .  A
C573        C578   1.403       .  A
C573       Br580   1.926       .  S
C574       C1799   1.411       .  A
C575       C1798   1.410       .  A
C575        C576   1.402       .  A
C575       Br582   1.917       .  S
C576        C577   1.403       .  A
C576       Br581   1.931       .  S
C577       C1802   1.406   1_455  A
C578       C1801   1.404       .  A
C578       Br579   1.928       .  S
C583        C584   1.413   1_455  A
C583        C588   1.412       .  A
C583       Br590   1.932       .  S
C584       C1809   1.412       .  A
C585       C1808   1.413       .  A
C585        C586   1.410       .  A
C585       Br592   1.931       .  S
C586       C1811   1.413       .  A
C586       Br591   1.930       .  S
C587       C1810   1.416       .  A
C587        C588   1.419   1_655  A
C588       Br589   1.930       .  S
C593        C594   1.406       .  A
C593        C598   1.405       .  A
C593       Br600   1.931       .  S
C594       C1819   1.406       .  A
C595       C1818   1.405   1_455  A
C595        C596   1.404       .  A
C595       Br602   1.932       .  S
C596        C597   1.408       .  A
C596       Br601   1.923       .  S
C597       C1822   1.409   1_455  A
C598       C1821   1.409       .  A
C598       Br599   1.929       .  S
C603       C1828   1.409   1_455  A
C603        C608   1.407       .  A
C603       Br610   1.925       .  S
C604       C1827   1.410       .  A
C604        C605   1.408       .  A
C605        C606   1.408       .  A
C605       Br612   1.930       .  S
C606        C607   1.411       .  A
C606       Br611   1.930       .  S
C607       C1832   1.410       .  A
C608       C1831   1.409   1_455  A
C608       Br609   1.931       .  S
O613       Zr625   2.473       .  S
O613        C615   1.294       .  A
O614      Zr1875   2.431       .  S
O614        C615   1.287       .  A
C615        C873   1.507       .  S
O616       Zr628   2.443       .  S
O616        C618   1.287       .  A
O617        C618   1.287       .  A
C618        C880   1.481       .  S
O619       Zr628   2.426       .  S
O619        C621   1.284       .  A
O620       Zr651   2.452   1_455  S
O620       C1845   1.292       .  A
C621       O1844   1.292       .  A
C621        C913   1.476       .  S
O622       Zr625   2.452       .  S
O622        C624   1.291       .  A
O623       Zr652   2.449       .  S
C624        C843   1.498       .  S
Zr625       O626   2.433       .  S
Zr625       O631   2.372       .  S
Zr625       O632   2.383       .  S
O626        H669   0.990       .  S
O627        H668   0.989       .  S
O627        H672   0.989       .  S
Zr628       O629   2.436       .  S
Zr628      O1854   2.434       .  S
Zr628       O632   2.371       .  S
Zr628       O631   2.379       .  S
Zr628      O1880   2.380       .  S
Zr628      O1882   2.368       .  S
O629        H670   0.990       .  S
O629        H673   0.990       .  S
O630      Zr1852   2.434       .  S
O630        H663   0.990       .  S
O631      Zr1875   2.380       .  S
O632        H659   0.965       .  S
O633       Zr645   2.453       .  S
O633        C635   1.290       .  A
O634       Zr652   2.422   1_565  S
O634       C1859   1.284       .  A
C635       O1858   1.287       .  A
C635        C893   1.495       .  S
O636       Zr648   2.451       .  S
O636        C638   1.290       .  A
O637       Zr651   2.433   1_455  S
C638        C863   1.501       .  S
O639       Zr648   2.425   1_545  S
O639        C641   1.284       .  A
O640      Zr1876   2.451       .  S
O640        C641   1.292       .  A
C641        C853   1.473       .  S
O642       Zr645   2.436       .  S
O642        C644   1.286       .  A
O643        C644   1.288       .  A
C644        C903   1.469       .  S
Zr645       O646   2.436   1_655  S
Zr645      O1871   2.432       .  S
Zr645       O653   2.366   1_655  S
Zr645       O654   2.376   1_655  S
Zr645      O1881   2.376       .  S
Zr645      O1879   2.364       .  S
O646        H666   0.990       .  S
O646        H671   0.990       .  S
O647      Zr1869   2.432       .  S
O647        H667   0.989       .  S
Zr648       O649   2.437       .  S
Zr648       O654   2.364       .  S
Zr648       O653   2.378       .  S
O649        H665   0.990       .  S
O650        H664   0.990       .  S
O650        H674   0.990       .  S
Zr651      O1838   2.433       .  S
Zr651      O1855   2.381       .  S
Zr651       O656   2.383   1_655  S
Zr651      O1269   2.395       .  S
Zr652      O1864   2.442       .  S
Zr652      O1877   2.387   1_545  S
Zr652       O655   2.377   1_545  S
Zr652      O1270   2.392       .  S
O653      Zr1876   2.388   1_565  S
O653        H661   0.965       .  S
O655      Zr1869   2.370       .  S
O656      Zr1852   2.377       .  S
O656        H660   0.966       .  S
O657      Zr1869   2.385       .  S
O657      Zr1263   2.385       .  S
O657        H662   0.965       .  S
O658      Zr1852   2.373       .  S
O658      Zr1264   2.391       .  S
O675       Zr687   2.445       .  S
O675        C677   1.288       .  A
O676       Zr713   2.429   1_455  S
O676       C1901   1.286   1_455  A
C677       O1900   1.289       .  A
C677        C910   1.480       .  S
O678       Zr690   2.461       .  S
O678        C680   1.292   1_554  A
O679       Zr714   2.426       .  S
O679        C680   1.287   1_554  A
C680        C800   1.491       .  S
O681       Zr690   2.453       .  S
O681        C683   1.291       .  A
O682      Zr1937   2.422   1_554  S
O682        C683   1.285       .  A
C683        C810   1.494       .  S
O684       Zr687   2.437       .  S
O684        C686   1.287       .  A
O685       Zr714   2.449       .  S
O685        C686   1.291       .  A
C686        C900   1.478       .  S
Zr687       O688   2.432       .  S
Zr687      O1913   2.438       .  S
Zr687       O693   2.371       .  S
Zr687       O694   2.381       .  S
Zr687      O1941   2.374       .  S
Zr687      O1943   2.367       .  S
O688        H731   0.990       .  S
O689      Zr1911   2.435   1_455  S
O689        H730   0.990       .  S
O689        H734   0.990       .  S
Zr690       O691   2.434       .  S
Zr690       O998   2.435   1_554  S
Zr690       O694   2.373       .  S
Zr690       O693   2.376       .  S
Zr690      O1024   2.370   1_554  S
Zr690      O1026   2.367   1_554  S
O691        H732   0.990       .  S
O691        H735   0.990       .  S
O692       Zr996   2.435       .  S
O692        H725   0.990       .  S
O693      Zr1937   2.379   1_554  S
O694       Zr714   2.384       .  S
O694        H721   0.967       .  S
O695      Zr1013   2.444       .  S
O695        C697   1.288       .  A
O696      Zr1938   2.395       .  S
O696       C1003   1.280       .  A
C697       O1002   1.287       .  A
C697        C823   1.500       .  S
O698       Zr710   2.414       .  S
O698        C700   1.283       .  A
O699      Zr1019   2.441       .  S
O699        C700   1.290       .  A
C700        C883   1.466       .  S
O701       Zr710   2.450       .  S
O701        C703   1.289       .  A
O702      Zr1020   2.435       .  S
O702       C1927   1.288       .  A
C703       O1926   1.288       .  A
C703        C890   1.491       .  S
O704       Zr707   2.447       .  S
O704       C1012   1.288       .  A
O705       Zr713   2.422   1_455  S
O705       C1012   1.283       .  A
C706       O1010   1.291       .  A
C706       O1011   1.290       .  A
C706        C833   1.502       .  S
Zr707      O1001   2.454       .  S
Zr707      O1014   2.434   1_554  S
Zr707       O709   2.434       .  S
Zr707      O1021   2.367   1_554  S
Zr707      O1022   2.373   1_554  S
Zr707       O719   2.369       .  S
Zr707       O717   2.371       .  S
O708      Zr1013   2.434       .  S
O708        H728   0.990       .  S
O708        H733   0.990       .  S
O709        H729   0.990       .  S
Zr710       O711   2.434   1_655  S
Zr710      O1936   2.434       .  S
Zr710       O716   2.387   1_655  S
Zr710       O715   2.365   1_655  S
Zr710      O1944   2.357       .  S
Zr710      O1942   2.371       .  S
O711        H727   0.990       .  S
O712      Zr1934   2.431       .  S
O712        H726   0.990       .  S
O712        H736   0.990       .  S
Zr713      O1906   2.423       .  S
Zr713      O1005   2.420   1_654  S
Zr713      O1917   2.380       .  S
Zr713      O1022   2.384   1_654  S
Zr713      O2248   2.390   1_554  S
Zr713       O719   2.377   1_655  S
Zr714      O1920   2.416   1_554  S
Zr714      O1008   2.428   1_554  S
Zr714      O2245   2.385   1_554  S
Zr714      O1941   2.385       .  S
Zr714      O1026   2.376   1_554  S
O715      Zr1013   2.374       .  S
O715      Zr2244   2.379   1_455  S
O715        H723   0.966       .  S
O716      Zr1013   2.367       .  S
O716      Zr1019   2.382   1_455  S
O717      Zr1911   2.378   1_455  S
O717      Zr1938   2.382       .  S
O718       Zr996   2.380       .  S
O718      Zr1934   2.377       .  S
O718      Zr2243   2.390       .  S
O718        H722   0.968       .  S
O719      Zr1911   2.365   1_455  S
O719        H724   0.966       .  S
O720       Zr996   2.374       .  S
O720      Zr1934   2.368       .  S
O720      Zr1020   2.379       .  S
O737       Zr749   2.431       .  S
O737        C739   1.286   1_556  A
O738        C739   1.288       .  A
C739        C813   1.480       .  S
O740       Zr752   2.454       .  S
O741       Zr776   2.427   1_554  S
O741        C742   1.286       .  A
C742        C860   1.496       .  S
O743       Zr752   2.453   1_545  S
O744       Zr775   2.433       .  S
C745        C870   1.495       .  S
O746       Zr749   2.445       .  S
O746        C748   1.288       .  A
O747       Zr776   2.424   1_554  S
O747        C748   1.285   1_554  A
C748        C830   1.495   1_556  S
Zr749       O750   2.429   1_556  S
Zr749      O1057   2.436       .  S
Zr749       O755   2.374   1_556  S
Zr749       O756   2.373   1_556  S
Zr749      O1085   2.366       .  S
Zr749      O1087   2.369       .  S
O750        H793   0.990       .  S
O751      Zr1055   2.436       .  S
O751        H792   0.990       .  S
O751        H796   0.990       .  S
Zr752       O754   2.431       .  S
Zr752       O780   2.373       .  S
Zr752       O782   2.373       .  S
O753        H794   0.990       .  S
O753        H797   0.990       .  S
O754        H787   0.989       .  S
O756       Zr776   2.380   1_554  S
O756        H783   0.967       .  S
O757       Zr769   2.436       .  S
O758      Zr1082   2.424       .  S
C759        C850   1.467       .  S
O760       Zr772   2.456       .  S
O760       C1068   1.291       .  A
O761       Zr775   2.421       .  S
O761       C1068   1.287       .  A
C762       O1066   1.286       .  A
C762       O1067   1.290       .  A
C762        C803   1.492       .  S
O763       Zr772   2.464       .  S
O763       C1071   1.293       .  A
O764       C1071   1.283   1_556  A
C765       O1069   1.290       .  A
C765       O1070   1.284       .  A
C765        C820   1.491       .  S
O766       Zr769   2.456       .  S
O767      Zr1081   2.430       .  S
O767        C768   1.287       .  A
C768        C840   1.493       .  S
Zr769       O771   2.434       .  S
Zr769       O781   2.366       .  S
Zr769       O779   2.378       .  S
O770        H790   0.990       .  S
O770        H795   0.990       .  S
O771        H791   0.990       .  S
Zr772      O1079   2.432   1_554  S
Zr772       O774   2.435       .  S
Zr772      O1084   2.377   1_554  S
Zr772      O1083   2.370   1_554  S
Zr772       O782   2.372       .  S
Zr772       O780   2.378       .  S
O773      Zr1078   2.431       .  S
O773        H789   0.990       .  S
O774        H788   0.990       .  S
O774        H798   0.990       .  S
Zr775      O1073   2.444   1_564  S
Zr775      O1084   2.383   1_554  S
Zr775       O780   2.389       .  S
Zr776      O1064   2.426       .  S
Zr776      O1085   2.378       .  S
O777      Zr1078   2.370       .  S
O777        H785   0.966       .  S
O778      Zr1078   2.381       .  S
O778      Zr1081   2.378   1_565  S
O779      Zr1055   2.371       .  S
O779      Zr1082   2.382       .  S
O780        H784   0.966       .  S
O781      Zr1055   2.379       .  S
O781        H786   0.967       .  S
C799        C800   1.414   1_554  A
C799        C804   1.410       .  A
C799       Br806   1.929       .  S
C800       C1107   1.414       .  A
C801       C1106   1.410       .  A
C801        C802   1.409       .  A
C801       Br808   1.934       .  S
C802        C803   1.417       .  A
C802       Br807   1.930       .  S
C803       C1110   1.414       .  A
C804       C1109   1.413   1_554  A
C804       Br805   1.933       .  S
C809       C1116   1.420       .  A
C809        C814   1.407       .  A
C809       Br816   1.937       .  S
C810       C1115   1.418   1_554  A
C810        C811   1.419       .  A
C811        C812   1.410       .  A
C811       Br818   1.932       .  S
C812        C813   1.411       .  A
C812       Br817   1.931       .  S
C813       C1120   1.406   1_554  A
C814       C1119   1.415       .  A
C814       Br815   1.937       .  S
C819        C820   1.412       .  A
C819        C824   1.411       .  A
C819       Br826   1.935       .  S
C820       C1127   1.414       .  A
C821       C1126   1.417   1_554  A
C821        C822   1.407       .  A
C821       Br828   1.931       .  S
C822       C1129   1.415   1_554  A
C822       Br827   1.937       .  S
C823       C1128   1.420       .  A
C823        C824   1.421       .  A
C824       Br825   1.933       .  S
C829       C1136   1.418       .  A
C829        C834   1.416       .  A
C829       Br836   1.932       .  S
C830       C1135   1.417   1_554  A
C830        C831   1.415       .  A
C831        C832   1.407       .  A
C831       Br838   1.935       .  S
C832       C1139   1.421       .  A
C832       Br837   1.939       .  S
C833       C1138   1.417       .  A
C833        C834   1.416       .  A
C834       Br835   1.933       .  S
C839        C844   1.416       .  A
C839       Br846   1.930       .  S
C840        C841   1.413       .  A
C841        C842   1.411       .  A
C841       Br848   1.932       .  S
C842       Br847   1.931       .  S
C843        C844   1.416       .  A
C844       Br845   1.929       .  S
C849        C850   1.408       .  A
C849        C854   1.407       .  A
C849       Br856   1.927       .  S
C851        C852   1.404       .  A
C851       Br858   1.933       .  S
C852       Br857   1.916       .  S
C853        C854   1.408   1_545  A
C854       Br855   1.930       .  S
C859        C864   1.413       .  A
C859       Br866   1.935       .  S
C860        C861   1.414       .  A
C861        C862   1.412       .  A
C861       Br868   1.933       .  S
C862       Br867   1.932       .  S
C863        C864   1.419   1_565  A
C864       Br865   1.935       .  S
C869        C874   1.411       .  A
C869       Br876   1.933       .  S
C870        C871   1.414       .  A
C871        C872   1.415       .  A
C871       Br878   1.936       .  S
C872        C873   1.423       .  A
C872       Br877   1.932       .  S
C874       Br875   1.929       .  S
C879        C880   1.411       .  A
C879        C884   1.406       .  A
C879       Br886   1.928       .  S
C880       C2105   1.413       .  A
C881       C2104   1.410       .  A
C881        C882   1.404       .  A
C881       Br888   1.920       .  S
C882        C883   1.407   1_455  A
C882       Br887   1.933       .  S
C883       C2108   1.405       .  A
C884       C2107   1.407       .  A
C884       Br885   1.929       .  S
C889        C890   1.412   1_455  A
C889        C894   1.410       .  A
C889       Br896   1.930       .  S
C890       C2115   1.412       .  A
C891       C2114   1.415       .  A
C891        C892   1.411       .  A
C891       Br898   1.930       .  S
C892       C2117   1.414       .  A
C892       Br897   1.933       .  S
C893       C2116   1.417       .  A
C893        C894   1.416   1_655  A
C894       Br895   1.928       .  S
C899        C900   1.411       .  A
C899        C904   1.410       .  A
C899       Br906   1.929       .  S
C900       C2125   1.409       .  A
C901       C2124   1.407   1_455  A
C901        C902   1.405       .  A
C901       Br908   1.930       .  S
C902        C903   1.407   1_455  A
C902       Br907   1.925       .  S
C903       C2128   1.408       .  A
C904       C2127   1.408       .  A
C904       Br905   1.930       .  S
C909       C2134   1.410   1_455  A
C909        C914   1.410       .  A
C909       Br916   1.930       .  S
C910       C2133   1.410       .  A
C910        C911   1.409       .  A
C911        C912   1.409       .  A
C911       Br918   1.926       .  S
C912        C913   1.408       .  A
C912       Br917   1.929       .  S
C913       C2138   1.409       .  A
C914       C2137   1.410       .  A
C914       Br915   1.930       .  S
O919       Zr931   2.472       .  S
O919        C921   1.294       .  A
O920      Zr2181   2.437       .  S
O920        C921   1.288       .  A
C921       C1179   1.509       .  S
O922       Zr934   2.431       .  S
O922        C924   1.284       .  A
O923        C924   1.288       .  A
C924       C1186   1.472       .  S
O925       Zr934   2.428       .  S
O925        C927   1.284       .  A
O926       Zr957   2.442       .  S
O926       C2151   1.290       .  A
C927       O2150   1.291       .  A
C927       C1219   1.476       .  S
O928       Zr931   2.444       .  S
O928        C930   1.289       .  A
O929       Zr958   2.455       .  S
C930       C1149   1.496       .  S
Zr931       O932   2.432       .  S
Zr931       O937   2.373       .  S
Zr931       O938   2.383       .  S
O932        H975   0.990       .  S
O933        H974   0.989       .  S
O933        H978   0.990       .  S
Zr934       O935   2.436       .  S
Zr934      O2160   2.434       .  S
Zr934       O938   2.369       .  S
Zr934       O937   2.375       .  S
Zr934      O2186   2.375       .  S
Zr934      O2188   2.374       .  S
O935        H976   0.990       .  S
O935        H979   0.990       .  S
O936      Zr2158   2.434       .  S
O936        H969   0.990       .  S
O937      Zr2181   2.380       .  S
O938        H965   0.965       .  S
O939       Zr951   2.480       .  S
O939        C941   1.296       .  A
O940       Zr958   2.411   1_565  S
O940       C2165   1.283       .  A
C941       O2164   1.282       .  A
C941       C1199   1.499       .  S
O942       Zr954   2.447   1_565  S
O942        C944   1.289       .  A
O943       Zr957   2.428       .  S
C944       C1169   1.498       .  S
O945       Zr954   2.422       .  S
O945        C947   1.283       .  A
O946      Zr2182   2.451       .  S
O946        C947   1.292       .  A
C947       C1159   1.474       .  S
O948       Zr951   2.457       .  S
O948        C950   1.290       .  A
O949        C950   1.287       .  A
C950       C1209   1.477       .  S
Zr951       O952   2.441       .  S
Zr951      O2177   2.433   1_455  S
Zr951       O959   2.367       .  S
Zr951       O960   2.381       .  S
Zr951      O2187   2.382   1_455  S
Zr951      O2185   2.371   1_455  S
O952        H972   0.990       .  S
O952        H977   0.990       .  S
O953      Zr2175   2.433       .  S
O953        H973   0.990       .  S
Zr954       O955   2.434   1_545  S
Zr954       O960   2.367   1_545  S
Zr954       O959   2.377   1_545  S
O955        H971   0.990       .  S
O956        H970   0.989       .  S
O956        H980   0.990       .  S
Zr957      O2144   2.426   1_455  S
Zr957      O2161   2.384   1_455  S
Zr957       O962   2.384       .  S
Zr957      O1575   2.387   1_455  S
Zr958      O2170   2.444   1_545  S
Zr958      O2183   2.386   1_545  S
Zr958       O961   2.377   1_545  S
Zr958      O1576   2.388       .  S
O959      Zr2182   2.390   1_565  S
O959        H967   0.965       .  S
O961      Zr2175   2.366       .  S
O962      Zr2158   2.380       .  S
O962        H966   0.966       .  S
O963      Zr2175   2.388       .  S
O963      Zr1569   2.390       .  S
O963        H968   0.966       .  S
O964      Zr2158   2.373       .  S
O964      Zr1570   2.389       .  S
O981       Zr993   2.444       .  S
O981        C983   1.288       .  A
O982      Zr1019   2.434       .  S
O982       C2207   1.287   1_655  A
C983       O2206   1.286       .  A
C983       C1216   1.474       .  S
O984       Zr996   2.463       .  S
O984        C986   1.292       .  A
O985      Zr1020   2.412       .  S
O985        C986   1.283       .  A
C986       C1106   1.491       .  S
O987       Zr996   2.451       .  S
O987        C989   1.289       .  A
O988      Zr2243   2.418       .  S
O988        C989   1.283       .  A
C989       C1116   1.501       .  S
O990       Zr993   2.420       .  S
O990        C992   1.283       .  A
O991      Zr1020   2.429       .  S
O991        C992   1.287       .  A
C992       C1206   1.462       .  S
Zr993       O994   2.434       .  S
Zr993      O2219   2.436       .  S
Zr993       O999   2.366       .  S
Zr993      O1000   2.381       .  S
Zr993      O2247   2.376       .  S
Zr993      O2249   2.364       .  S
O994       H1037   0.990       .  S
O995      Zr2217   2.436       .  S
O995       H1036   0.990       .  S
O995       H1040   0.990       .  S
Zr996       O997   2.437       .  S
Zr996      O1000   2.367       .  S
Zr996       O999   2.378       .  S
O997       H1038   0.990       .  S
O997       H1041   0.990       .  S
O998       H1031   0.990       .  S
O999      Zr2243   2.382       .  S
O1000     Zr1020   2.385       .  S
O1000      H1027   0.967       .  S
O1001      C1003   1.291       .  A
O1002     Zr2244   2.432   1_455  S
C1003      C1129   1.481   1_554  S
O1004     Zr1016   2.426   1_455  S
O1004      C1006   1.284       .  A
O1005      C1006   1.286       .  A
C1006      C1189   1.464       .  S
O1007     Zr1016   2.454   1_455  S
O1007      C1009   1.291       .  A
O1008      C2233   1.287       .  A
C1009      O2232   1.288       .  A
C1009      C1196   1.494       .  S
O1010     Zr1013   2.457       .  S
O1011     Zr1019   2.446   1_455  S
C1012      C1139   1.502       .  S
Zr1013     O1015   2.433       .  S
Zr1013     O1025   2.372       .  S
Zr1013     O1023   2.385       .  S
O1014      H1034   0.990       .  S
O1014      H1039   0.990       .  S
O1015      H1035   0.990       .  S
Zr1016     O1017   2.435   1_655  S
Zr1016     O2242   2.431       .  S
Zr1016     O1022   2.376   1_655  S
Zr1016     O1021   2.363   1_655  S
Zr1016     O2250   2.366       .  S
Zr1016     O2248   2.372       .  S
O1017      H1033   0.990       .  S
O1018     Zr2240   2.434       .  S
O1018      H1032   0.990       .  S
O1018      H1042   0.990       .  S
Zr1019     O2212   2.413       .  S
Zr1019     O2223   2.385       .  S
Zr1019     O1942   2.395       .  S
Zr1019     O1025   2.379   1_655  S
Zr1020     O2226   2.406       .  S
Zr1020     O1939   2.383       .  S
Zr1020     O2247   2.386       .  S
O1021     Zr1938   2.384   1_556  S
O1021      H1029   0.966       .  S
O1023     Zr2217   2.382       .  S
O1023     Zr2244   2.387   1_455  S
O1024     Zr2240   2.374       .  S
O1024     Zr1937   2.392       .  S
O1024      H1028   0.967       .  S
O1025     Zr2217   2.367       .  S
O1025      H1030   0.966       .  S
O1026     Zr2240   2.357       .  S
O1043     Zr1055   2.450       .  S
O1043      C1045   1.289       .  A
O1044      C1045   1.285       .  A
C1045      C1119   1.492       .  S
O1046     Zr1058   2.443       .  S
O1047     Zr1082   2.426       .  S
O1047      C1048   1.286       .  A
C1048      C1166   1.494       .  S
O1049     Zr1058   2.457   1_545  S
O1050     Zr1081   2.424   1_565  S
C1051      C1176   1.499       .  S
O1052     Zr1055   2.465       .  S
O1052      C1054   1.293       .  A
O1053     Zr1082   2.427       .  S
O1053      C1054   1.286       .  A
C1054      C1136   1.500       .  S
Zr1055     O1056   2.430       .  S
Zr1055     O1061   2.377       .  S
Zr1055     O1062   2.369       .  S
O1056      H1099   0.990       .  S
O1057      H1098   0.990       .  S
O1057      H1102   0.990       .  S
Zr1058     O1060   2.431       .  S
Zr1058     O1086   2.368       .  S
Zr1058     O1088   2.379       .  S
O1059      H1100   0.990       .  S
O1059      H1103   0.990       .  S
O1060      H1093   0.990       .  S
O1062     Zr1082   2.381       .  S
O1062      H1089   0.966       .  S
O1063     Zr1075   2.430       .  S
C1065      C1156   1.472       .  S
O1066     Zr1078   2.437       .  S
O1067     Zr1081   2.442   1_565  S
C1068      C1109   1.487   1_554  S
O1069     Zr1078   2.456       .  S
C1071      C1126   1.484   1_554  S
O1072     Zr1075   2.454       .  S
O1073      C1074   1.290   1_545  A
C1074      C1146   1.493   1_565  S
Zr1075     O1077   2.432       .  S
Zr1075     O1087   2.367       .  S
Zr1075     O1085   2.377       .  S
O1076      H1096   0.990       .  S
O1076      H1101   0.990       .  S
O1077      H1097   0.990       .  S
Zr1078     O1080   2.435       .  S
Zr1078     O1088   2.368       .  S
Zr1078     O1086   2.372       .  S
O1079      H1095   0.989       .  S
O1080      H1094   0.990       .  S
O1080      H1104   0.990       .  S
Zr1081     O1086   2.382   1_545  S
O1083      H1091   0.966       .  S
O1086      H1090   0.966       .  S
O1087      H1092   0.966       .  S
C1105      C1106   1.416       .  A
C1105      C1110   1.411       .  A
C1105     Br1112   1.930       .  S
C1107      C1108   1.411       .  A
C1107     Br1114   1.930       .  S
C1108      C1109   1.413       .  A
C1108     Br1113   1.932       .  S
C1110     Br1111   1.933       .  S
C1115      C1120   1.404       .  A
C1115     Br1122   1.929       .  S
C1116      C1117   1.419       .  A
C1117      C1118   1.411       .  A
C1117     Br1124   1.935       .  S
C1118      C1119   1.416       .  A
C1118     Br1123   1.934       .  S
C1120     Br1121   1.933       .  S
C1125      C1126   1.412       .  A
C1125      C1130   1.405       .  A
C1125     Br1132   1.930       .  S
C1127      C1128   1.409       .  A
C1127     Br1134   1.933       .  S
C1128     Br1133   1.937       .  S
C1129      C1130   1.410       .  A
C1130     Br1131   1.932       .  S
C1135      C1140   1.412       .  A
C1135     Br1142   1.938       .  S
C1136      C1137   1.415       .  A
C1137      C1138   1.413       .  A
C1137     Br1144   1.933       .  S
C1138     Br1143   1.932       .  S
C1139      C1140   1.424   1_554  A
C1140     Br1141   1.940       .  S
C1145      C1150   1.413       .  A
C1145     Br1152   1.932       .  S
C1146      C1147   1.412       .  A
C1147      C1148   1.413       .  A
C1147     Br1154   1.931       .  S
C1148     Br1153   1.932       .  S
C1149      C1150   1.415       .  A
C1150     Br1151   1.930       .  S
C1155      C1156   1.409   1_565  A
C1155      C1160   1.406       .  A
C1155     Br1162   1.927       .  S
C1157      C1158   1.404       .  A
C1157     Br1164   1.930       .  S
C1158     Br1163   1.929       .  S
C1159      C1160   1.406   1_545  A
C1160     Br1161   1.931       .  S
C1165      C1170   1.413       .  A
C1165     Br1172   1.933       .  S
C1166      C1167   1.413       .  A
C1167      C1168   1.410       .  A
C1167     Br1174   1.933       .  S
C1168     Br1173   1.933       .  S
C1169      C1170   1.417   1_565  A
C1170     Br1171   1.931       .  S
C1175      C1180   1.410       .  A
C1175     Br1182   1.932       .  S
C1176      C1177   1.413       .  A
C1177      C1178   1.414       .  A
C1177     Br1184   1.934       .  S
C1178      C1179   1.421       .  A
C1178     Br1183   1.929       .  S
C1180     Br1181   1.927       .  S
C1185      C1186   1.409       .  A
C1185      C1190   1.402       .  A
C1185     Br1192   1.921       .  S
C1186      C2411   1.411       .  A
C1187      C2410   1.411       .  A
C1187      C1188   1.403       .  A
C1187     Br1194   1.915       .  S
C1188      C1189   1.402       .  A
C1188     Br1193   1.932       .  S
C1189      C2414   1.407   1_455  A
C1190      C2413   1.402       .  A
C1190     Br1191   1.931       .  S
C1195      C1196   1.414       .  A
C1195      C1200   1.413       .  A
C1195     Br1202   1.928       .  S
C1196      C2421   1.412   1_455  A
C1197      C2420   1.411       .  A
C1197      C1198   1.410       .  A
C1197     Br1204   1.931       .  S
C1198      C2423   1.415       .  A
C1198     Br1203   1.931       .  S
C1199      C2422   1.413   1_455  A
C1199      C1200   1.420       .  A
C1200     Br1201   1.932       .  S
C1205      C1206   1.407       .  A
C1205      C1210   1.405       .  A
C1205     Br1212   1.931       .  S
C1206      C2431   1.405       .  A
C1207      C2430   1.405       .  A
C1207      C1208   1.406       .  A
C1207     Br1214   1.933       .  S
C1208      C1209   1.410       .  A
C1208     Br1213   1.920       .  S
C1209      C2434   1.410   1_455  A
C1210      C2433   1.408       .  A
C1210     Br1211   1.928       .  S
C1215      C2440   1.410       .  A
C1215      C1220   1.410       .  A
C1215     Br1222   1.923       .  S
C1216      C2439   1.409       .  A
C1216      C1217   1.407       .  A
C1217      C1218   1.408       .  A
C1217     Br1224   1.928       .  S
C1218      C1219   1.410       .  A
C1218     Br1223   1.928       .  S
C1219      C2444   1.410       .  A
C1220      C2443   1.410       .  A
C1220     Br1221   1.932       .  S
O1225     Zr1237   2.465       .  S
O1225      C1227   1.293       .  A
O1226      C1227   1.289   1_565  A
C1227      C1485   1.500       .  S
O1228     Zr1240   2.438       .  S
O1228      C1230   1.286       .  A
O1229     Zr1876   2.427       .  S
O1229      C1230   1.287       .  A
C1230      C1492   1.474       .  S
O1231     Zr1240   2.423       .  S
O1231      C1233   1.283       .  A
O1232     Zr1263   2.446   1_545  S
C1233      C1525   1.478       .  S
O1234     Zr1237   2.451       .  S
O1234      C1236   1.290       .  A
O1235     Zr1264   2.450   1_655  S
O1235      C1848   1.291       .  A
C1236      O1847   1.292       .  A
C1236      C1455   1.499       .  S
Zr1237     O1238   2.432       .  S
Zr1237     O1851   2.433   1_545  S
Zr1237     O1243   2.374       .  S
Zr1237     O1244   2.378       .  S
Zr1237     O1879   2.372   1_545  S
Zr1237     O1881   2.367   1_545  S
O1238      H1281   0.990       .  S
O1239     Zr1849   2.433       .  S
O1239      H1280   0.989       .  S
O1239      H1284   0.990       .  S
Zr1240     O1241   2.436   1_455  S
Zr1240     O1244   2.372   1_455  S
Zr1240     O1243   2.380   1_455  S
O1241      H1282   0.990       .  S
O1241      H1285   0.990       .  S
O1242      H1275   0.990       .  S
O1244     Zr1876   2.389   1_655  S
O1244      H1271   0.965       .  S
O1245     Zr1257   2.476       .  S
O1245      C1247   1.295       .  A
O1246     Zr1264   2.423       .  S
C1247      C1505   1.502       .  S
O1248     Zr1260   2.464       .  S
O1248      C1250   1.292       .  A
O1249     Zr1263   2.426       .  S
O1249      C1862   1.286       .  A
C1250      O1861   1.287       .  A
C1250      C1475   1.499       .  S
O1251     Zr1260   2.437       .  S
O1251      C1253   1.286       .  A
O1252      C1253   1.290       .  A
C1253      C1465   1.476       .  S
O1254     Zr1257   2.441       .  S
O1254      C1256   1.288       .  A
O1255     Zr1875   2.422       .  S
O1255      C1256   1.286       .  A
C1256      C1515   1.466       .  S
Zr1257     O1258   2.435       .  S
Zr1257     O1265   2.362       .  S
Zr1257     O1266   2.381       .  S
O1258      H1278   0.990       .  S
O1258      H1283   0.990       .  S
O1259      H1279   0.990       .  S
Zr1260     O1261   2.432       .  S
Zr1260     O1874   2.436       .  S
Zr1260     O1266   2.364       .  S
Zr1260     O1265   2.381       .  S
Zr1260     O1882   2.381       .  S
Zr1260     O1880   2.369       .  S
O1261      H1277   0.990       .  S
O1262     Zr1872   2.435       .  S
O1262      H1276   0.990       .  S
O1262      H1286   0.990       .  S
Zr1263     O1867   2.432       .  S
Zr1263     O1878   2.383       .  S
Zr1263     O1268   2.386   1_565  S
Zr1264     O1841   2.431       .  S
Zr1264     O1856   2.388   1_455  S
Zr1264     O1267   2.382   1_455  S
O1265      H1273   0.965       .  S
O1266     Zr1875   2.385       .  S
O1267     Zr1849   2.375       .  S
O1268     Zr1872   2.367       .  S
O1268      H1272   0.966       .  S
O1269     Zr1849   2.371       .  S
O1269      H1274   0.966       .  S
O1270     Zr1872   2.386       .  S
O1287     Zr1299   2.446       .  S
O1287      C1289   1.288       .  A
O1288     Zr1325   2.423       .  S
C1289      C1522   1.473       .  S
O1290     Zr1302   2.463   1_556  S
O1290      C1292   1.292       .  A
O1291     Zr1326   2.409   1_656  S
O1291      C1292   1.282       .  A
C1292      C1412   1.489       .  S
O1293     Zr1302   2.441       .  S
O1293      C1295   1.288       .  A
O1294      C1295   1.288       .  A
C1295      C1422   1.489       .  S
O1296     Zr1299   2.422   1_655  S
O1296      C1298   1.283       .  A
O1297     Zr1326   2.433   1_655  S
O1297      C1298   1.288       .  A
C1298      C1512   1.463       .  S
Zr1299     O1300   2.433   1_455  S
Zr1299     O1305   2.367   1_455  S
Zr1299     O1306   2.380   1_455  S
O1300      H1343   0.990       .  S
O1301      H1342   0.990       .  S
O1301      H1346   0.990       .  S
Zr1302     O1303   2.438       .  S
Zr1302     O1610   2.433   1_554  S
Zr1302     O1306   2.359       .  S
Zr1302     O1305   2.380       .  S
Zr1302     O1636   2.377   1_554  S
Zr1302     O1638   2.371   1_554  S
O1303      H1344   0.990       .  S
O1303      H1347   0.990       .  S
O1304     Zr1608   2.437       .  S
O1304      H1337   0.990       .  S
O1306     Zr1326   2.381   1_655  S
O1306      H1333   0.966       .  S
O1307     Zr1625   2.446       .  S
O1307      C1309   1.289       .  A
O1308      C1615   1.283       .  A
C1309      O1614   1.282       .  A
C1309      C1435   1.477       .  S
O1310     Zr1322   2.425       .  S
O1310      C1312   1.284       .  A
O1311     Zr1631   2.423       .  S
O1311      C1312   1.287       .  A
C1312      C1495   1.464       .  S
O1313     Zr1322   2.455       .  S
O1313      C1315   1.291       .  A
O1314     Zr1632   2.442       .  S
C1315      C1502   1.493       .  S
O1316     Zr1319   2.451       .  S
O1316      C1624   1.290       .  A
O1317     Zr1325   2.438       .  S
O1317      C1624   1.289   1_554  A
C1318      O1622   1.289       .  A
C1318      O1623   1.285       .  A
C1318      C1445   1.505       .  S
Zr1319     O1613   2.452       .  S
Zr1319     O1626   2.433       .  S
Zr1319     O1321   2.433   1_556  S
Zr1319     O1633   2.367       .  S
Zr1319     O1634   2.370       .  S
Zr1319     O1331   2.373   1_556  S
Zr1319     O1329   2.380   1_556  S
O1320     Zr1625   2.433       .  S
O1320      H1340   0.989       .  S
O1320      H1345   0.990       .  S
O1321      H1341   0.990       .  S
Zr1322     O1323   2.435       .  S
Zr1322     O1328   2.376       .  S
Zr1322     O1327   2.357       .  S
O1323      H1339   0.990       .  S
O1324      H1338   0.990       .  S
O1324      H1348   0.989       .  S
Zr1325     O1617   2.430   1_554  S
Zr1325     O1634   2.383   1_554  S
Zr1325     O1331   2.381       .  S
Zr1326     O1620   2.433   1_554  S
Zr1326     O1638   2.374   1_454  S
O1327     Zr1625   2.370       .  S
O1327      H1335   0.966       .  S
O1328     Zr1625   2.367       .  S
O1328     Zr1631   2.383       .  S
O1330     Zr1608   2.371       .  S
O1330      H1334   0.968       .  S
O1331      H1336   0.966       .  S
O1332     Zr1608   2.370       .  S
O1332     Zr1632   2.373       .  S
O1349     Zr1361   2.452       .  S
O1349      C1351   1.290   1_556  A
O1350     Zr1999   2.425   1_554  S
O1350      C1351   1.287       .  A
C1351      C1425   1.488       .  S
O1352     Zr1364   2.460       .  S
O1352      C1966   1.292       .  A
O1353     Zr1388   2.427   1_554  S
O1353      C1354   1.286       .  A
C1354      O1964   1.292       .  A
C1354      C1472   1.502       .  S
O1355     Zr1364   2.469       .  S
O1355      C1969   1.294       .  A
O1356     Zr1387   2.419       .  S
O1356      C1969   1.285       .  A
C1357      O1967   1.292       .  A
C1357      O1968   1.288       .  A
C1357      C1482   1.498       .  S
O1358     Zr1361   2.453       .  S
O1358      C1360   1.291       .  A
O1359     Zr1388   2.427   1_545  S
O1359      C1360   1.286       .  A
C1360      C1442   1.495       .  S
Zr1361     O1362   2.431   1_556  S
Zr1361     O1669   2.434       .  S
Zr1361     O1367   2.376   1_556  S
Zr1361     O1368   2.374   1_556  S
Zr1361     O1697   2.372       .  S
Zr1361     O1699   2.372       .  S
O1362      H1405   0.990       .  S
O1363     Zr1667   2.436       .  S
O1363      H1404   0.990       .  S
O1363      H1408   0.990       .  S
Zr1364     O1977   2.434       .  S
Zr1364     O1366   2.431       .  S
Zr1364     O1980   2.375       .  S
Zr1364     O1979   2.374       .  S
Zr1364     O1392   2.374       .  S
Zr1364     O1394   2.374       .  S
O1365     Zr1976   2.438   1_545  S
O1365      H1406   0.990       .  S
O1365      H1409   0.990       .  S
O1366      H1399   0.990       .  S
O1367     Zr1976   2.376   1_545  S
O1367     Zr1999   2.384   1_554  S
O1368     Zr1976   2.374   1_545  S
O1368     Zr1388   2.386   1_544  S
O1368      H1395   0.967       .  S
O1369     Zr1381   2.450       .  S
O1369      C1983   1.289   1_565  A
O1370     Zr1694   2.423       .  S
O1370      C1983   1.285   1_565  A
C1371      O1981   1.287       .  A
C1371      O1982   1.288       .  A
C1371      C1462   1.476       .  S
O1372     Zr1384   2.453   1_554  S
O1372      C1680   1.291       .  A
O1373     Zr1387   2.428       .  S
O1373      C1680   1.287       .  A
C1374      O1678   1.289       .  A
C1374      O1679   1.287       .  A
C1374      C1415   1.484       .  S
O1375     Zr1384   2.461       .  S
O1375      C1683   1.292       .  A
O1376     Zr2000   2.414       .  S
O1376      C1683   1.284       .  A
C1377      O1681   1.291       .  A
C1377      O1682   1.283       .  A
C1377      C1432   1.479       .  S
O1378     Zr1381   2.461       .  S
O1378      C1992   1.292       .  A
O1379     Zr1693   2.444       .  S
O1379      C1380   1.290       .  A
C1380      O1990   1.291       .  A
C1380      C1452   1.501       .  S
Zr1381     O1994   2.436       .  S
Zr1381     O1383   2.433   1_565  S
Zr1381     O2001   2.372       .  S
Zr1381     O2002   2.371       .  S
Zr1381     O1393   2.376   1_565  S
Zr1381     O1391   2.376   1_565  S
O1382     Zr1993   2.436       .  S
O1382      H1402   0.990       .  S
O1382      H1407   0.990       .  S
O1383      H1403   0.990       .  S
Zr1384     O1691   2.433       .  S
Zr1384     O1386   2.436   1_556  S
Zr1384     O1696   2.378       .  S
Zr1384     O1695   2.368       .  S
Zr1384     O1394   2.371   1_556  S
Zr1384     O1392   2.377   1_556  S
O1385     Zr1690   2.430       .  S
O1385      H1401   0.990       .  S
O1386      H1400   0.990       .  S
O1386      H1410   0.990       .  S
Zr1387     O1962   2.426       .  S
Zr1387     O1685   2.439   1_554  S
Zr1387     O1979   2.387       .  S
Zr1387     O1696   2.378   1_554  S
Zr1387     O1392   2.389       .  S
Zr1387     O2311   2.382   1_554  S
Zr1388     O1676   2.428       .  S
Zr1388     O1988   2.403       .  S
Zr1388     O2307   2.385       .  S
Zr1388     O1697   2.379   1_565  S
Zr1388     O2006   2.383   1_556  S
O1389     Zr1993   2.376       .  S
O1389     Zr1690   2.368       .  S
O1389     Zr2306   2.383       .  S
O1389      H1397   0.966       .  S
O1390     Zr1993   2.372       .  S
O1390     Zr1690   2.371       .  S
O1390     Zr1693   2.376       .  S
O1391     Zr1667   2.367       .  S
O1391     Zr1694   2.379   1_545  S
O1392      H1396   0.966       .  S
O1393     Zr1667   2.371       .  S
O1393     Zr2305   2.388       .  S
O1393      H1398   0.966       .  S
O1394     Zr2000   2.378   1_554  S
C1411      C1412   1.415   1_554  A
C1411      C1416   1.410       .  A
C1411     Br1418   1.931       .  S
C1412      C1719   1.410       .  A
C1413      C1718   1.412       .  A
C1413      C1414   1.409       .  A
C1413     Br1420   1.933       .  S
C1414      C1415   1.413       .  A
C1414     Br1419   1.930       .  S
C1415      C1722   1.412       .  A
C1416      C1721   1.414   1_554  A
C1416     Br1417   1.933       .  S
C1421      C1728   1.416       .  A
C1421      C1426   1.402       .  A
C1421     Br1428   1.932       .  S
C1422      C1727   1.414   1_554  A
C1422      C1423   1.415       .  A
C1423      C1424   1.409       .  A
C1423     Br1430   1.933       .  S
C1424      C1425   1.413       .  A
C1424     Br1429   1.932       .  S
C1425      C1732   1.414   1_554  A
C1426      C1731   1.408       .  A
C1426     Br1427   1.933       .  S
C1431      C1432   1.411       .  A
C1431      C1436   1.405       .  A
C1431     Br1438   1.930       .  S
C1432      C1739   1.413       .  A
C1433      C1738   1.415   1_554  A
C1433      C1434   1.407       .  A
C1433     Br1440   1.928       .  S
C1434      C1741   1.414   1_554  A
C1434     Br1439   1.935       .  S
C1435      C1740   1.413       .  A
C1435      C1436   1.411       .  A
C1436     Br1437   1.933       .  S
C1441      C1748   1.416       .  A
C1441      C1446   1.412       .  A
C1441     Br1448   1.938       .  S
C1442      C1747   1.417       .  A
C1442      C1443   1.415   1_556  A
C1443      C1444   1.409       .  A
C1443     Br1450   1.934       .  S
C1444      C1751   1.415   1_554  A
C1444     Br1449   1.933       .  S
C1445      C1750   1.420       .  A
C1445      C1446   1.422       .  A
C1446     Br1447   1.937       .  S
C1451      C2064   1.416   1_565  A
C1451      C1456   1.416       .  A
C1451     Br1458   1.932       .  S
C1452      C2063   1.416       .  A
C1452      C1453   1.415       .  A
C1453      C1454   1.412       .  A
C1453     Br1460   1.932       .  S
C1454      C2067   1.417       .  A
C1454     Br1459   1.934       .  S
C1455      C2066   1.416       .  A
C1455      C1456   1.416   1_545  A
C1456     Br1457   1.928       .  S
C1461      C1462   1.409       .  A
C1461      C1466   1.409       .  A
C1461     Br1468   1.924       .  S
C1462      C2075   1.409       .  A
C1463      C2074   1.410       .  A
C1463      C1464   1.408       .  A
C1463     Br1470   1.929       .  S
C1464      C2077   1.409       .  A
C1464     Br1469   1.931       .  S
C1465      C2076   1.408       .  A
C1465      C1466   1.409       .  A
C1466     Br1467   1.931       .  S
C1471      C2084   1.415       .  A
C1471      C1476   1.413       .  A
C1471     Br1478   1.934       .  S
C1472      C2083   1.418   1_565  A
C1472      C1473   1.413       .  A
C1473      C1474   1.413       .  A
C1473     Br1480   1.933       .  S
C1474      C2087   1.418       .  A
C1474     Br1479   1.933       .  S
C1475      C2086   1.417       .  A
C1475      C1476   1.419       .  A
C1476     Br1477   1.933       .  S
C1481      C2094   1.412       .  A
C1481      C1486   1.412       .  A
C1481     Br1488   1.932       .  S
C1482      C2093   1.414   1_545  A
C1482      C1483   1.415       .  A
C1483      C1484   1.414       .  A
C1483     Br1490   1.932       .  S
C1484      C1485   1.416       .  A
C1484     Br1489   1.928       .  S
C1485      C2098   1.415   1_545  A
C1486      C2097   1.417       .  A
C1486     Br1487   1.929       .  S
C1491      C1492   1.410   1_655  A
C1491      C1496   1.403       .  A
C1491     Br1498   1.921       .  S
C1493      C1494   1.402       .  A
C1493     Br1500   1.921       .  S
C1494      C1495   1.403       .  A
C1494     Br1499   1.929       .  S
C1496     Br1497   1.929       .  S
C1501      C1502   1.413       .  A
C1501      C1506   1.415       .  A
C1501     Br1508   1.932       .  S
C1503      C1504   1.412       .  A
C1503     Br1510   1.930       .  S
C1504     Br1509   1.932       .  S
C1505      C1506   1.421       .  A
C1506     Br1507   1.929       .  S
C1511      C1512   1.409       .  A
C1511      C1516   1.406       .  A
C1511     Br1518   1.931       .  S
C1513      C1514   1.403       .  A
C1513     Br1520   1.933       .  S
C1514      C1515   1.408       .  A
C1514     Br1519   1.921       .  S
C1516     Br1517   1.927       .  S
C1521      C1526   1.408       .  A
C1521     Br1528   1.929       .  S
C1522      C1523   1.407   1_455  A
C1523      C1524   1.407       .  A
C1523     Br1530   1.930       .  S
C1524      C1525   1.411   1_655  A
C1524     Br1529   1.929       .  S
C1526     Br1527   1.930       .  S
O1531     Zr1543   2.462   1_545  S
O1531      C1533   1.292   1_545  A
O1532      C1533   1.288       .  A
C1533      C1791   1.505       .  S
O1534     Zr1546   2.455       .  S
O1534      C1536   1.290       .  A
O1535     Zr2182   2.411       .  S
O1535      C1536   1.283       .  A
C1536      C1798   1.475       .  S
O1537     Zr1546   2.427   1_655  S
O1537      C1539   1.284       .  A
O1538     Zr1569   2.448   1_545  S
C1539      C1831   1.474       .  S
O1540     Zr1543   2.442   1_545  S
O1540      C1542   1.288       .  A
O1541     Zr1570   2.452   1_655  S
O1541      C2154   1.292       .  A
C1542      O2153   1.292       .  A
C1542      C1761   1.497       .  S
Zr1543     O1544   2.433   1_565  S
Zr1543     O2157   2.433       .  S
Zr1543     O1549   2.372   1_565  S
Zr1543     O1550   2.377   1_565  S
Zr1543     O2185   2.378       .  S
Zr1543     O2187   2.368       .  S
O1544      H1587   0.989       .  S
O1545     Zr2155   2.432       .  S
O1545      H1586   0.989       .  S
O1545      H1590   0.990       .  S
Zr1546     O1547   2.436   1_455  S
Zr1546     O1550   2.362   1_455  S
Zr1546     O1549   2.379   1_455  S
O1547      H1588   0.989       .  S
O1547      H1591   0.990       .  S
O1548      H1581   0.990       .  S
O1550     Zr2182   2.388   1_655  S
O1550      H1577   0.964       .  S
O1551     Zr1563   2.466       .  S
O1551      C1553   1.294       .  A
O1552     Zr1570   2.430       .  S
C1553      C1811   1.498       .  S
O1554     Zr1566   2.447       .  S
O1554      C1556   1.289       .  A
O1555     Zr1569   2.425       .  S
O1555      C2168   1.285       .  A
C1556      O2167   1.288       .  A
C1556      C1781   1.495       .  S
O1557     Zr1566   2.427       .  S
O1557      C1559   1.284       .  A
O1558      C1559   1.291       .  A
C1559      C1771   1.472       .  S
O1560     Zr1563   2.447       .  S
O1560      C1562   1.289       .  A
O1561     Zr2181   2.415       .  S
O1561      C1562   1.285       .  A
C1562      C1821   1.467       .  S
Zr1563     O1564   2.436       .  S
Zr1563     O1571   2.366       .  S
Zr1563     O1572   2.376       .  S
O1564      H1584   0.990       .  S
O1564      H1589   0.990       .  S
O1565      H1585   0.990       .  S
Zr1566     O1567   2.434       .  S
Zr1566     O2180   2.436       .  S
Zr1566     O1572   2.367       .  S
Zr1566     O1571   2.377       .  S
Zr1566     O2188   2.380       .  S
Zr1566     O2186   2.371       .  S
O1567      H1583   0.990       .  S
O1568     Zr2178   2.438   1_545  S
O1568      H1582   0.990       .  S
O1568      H1592   0.990       .  S
Zr1569     O2173   2.423       .  S
Zr1569     O2184   2.381       .  S
Zr1569     O1574   2.383   1_565  S
Zr1570     O2147   2.419       .  S
Zr1570     O2162   2.391   1_455  S
Zr1570     O1573   2.378   1_455  S
O1571      H1579   0.965       .  S
O1572     Zr2181   2.388       .  S
O1573     Zr2155   2.374       .  S
O1574     Zr2178   2.368   1_545  S
O1574      H1578   0.966       .  S
O1575     Zr2155   2.367       .  S
O1575      H1580   0.965       .  S
O1576     Zr2178   2.381   1_545  S
O1593     Zr1605   2.438   1_655  S
O1593      C1595   1.286       .  A
O1594     Zr1631   2.428       .  S
C1595      C1828   1.474       .  S
O1596     Zr1608   2.460       .  S
O1596      C1598   1.292       .  A
O1597     Zr1632   2.416       .  S
O1597      C1598   1.284       .  A
C1598      C1718   1.488       .  S
O1599     Zr1608   2.444       .  S
O1599      C1601   1.288       .  A
O1600      C1601   1.283       .  A
C1601      C1728   1.487       .  S
O1602     Zr1605   2.417   1_655  S
O1602      C1604   1.282       .  A
O1603     Zr1632   2.436       .  S
O1603      C1604   1.289       .  A
C1604      C1818   1.463       .  S
Zr1605     O1606   2.435   1_455  S
Zr1605     O1611   2.366   1_455  S
Zr1605     O1612   2.380   1_455  S
O1606      H1649   0.990       .  S
O1607      H1648   0.990       .  S
O1607      H1652   0.990       .  S
Zr1608     O1609   2.433       .  S
Zr1608     O1612   2.366       .  S
Zr1608     O1611   2.378       .  S
O1609      H1650   0.990       .  S
O1609      H1653   0.990       .  S
O1610      H1643   0.990       .  S
O1612     Zr1632   2.386       .  S
O1612      H1639   0.967       .  S
O1613      C1615   1.290       .  A
C1615      C1741   1.484       .  S
O1616     Zr1628   2.425       .  S
O1616      C1618   1.284       .  A
O1617      C1618   1.288       .  A
C1618      C1801   1.470       .  S
O1619     Zr1628   2.458       .  S
O1619      C1621   1.292       .  A
C1621      C1808   1.494       .  S
O1622     Zr1625   2.449       .  S
O1623     Zr1631   2.430       .  S
C1624      C1751   1.494       .  S
Zr1625     O1627   2.434       .  S
Zr1625     O1637   2.370       .  S
Zr1625     O1635   2.377       .  S
O1626      H1646   0.989       .  S
O1626      H1651   0.990       .  S
O1627      H1647   0.991       .  S
Zr1628     O1629   2.434       .  S
Zr1628     O1634   2.375       .  S
Zr1628     O1633   2.362       .  S
O1629      H1645   0.990       .  S
O1630      H1644   0.990       .  S
O1630      H1654   0.989       .  S
Zr1631     O1637   2.382       .  S
O1633      H1641   0.966       .  S
O1636      H1640   0.967       .  S
O1637      H1642   0.966       .  S
O1655     Zr1667   2.432       .  S
O1655      C1657   1.285       .  A
O1656     Zr2305   2.424       .  S
O1656      C1657   1.287       .  A
C1657      C1731   1.479       .  S
O1658     Zr1670   2.453       .  S
O1658      C2272   1.290       .  A
O1659     Zr1694   2.409       .  S
O1659      C1660   1.283       .  A
C1660      O2270   1.292   1_565  A
C1660      C1778   1.491       .  S
O1661     Zr1670   2.459       .  S
O1661      C2275   1.291       .  A
O1662     Zr1693   2.432       .  S
O1662      C2275   1.288       .  A
C1663      O2273   1.289       .  A
C1663      O2274   1.292       .  A
C1663      C1788   1.498       .  S
O1664     Zr1667   2.446       .  S
O1664      C1666   1.289       .  A
O1665     Zr1694   2.426   1_545  S
O1665      C1666   1.286       .  A
C1666      C1748   1.496       .  S
Zr1667     O1668   2.425       .  S
Zr1667     O1673   2.375       .  S
Zr1667     O1674   2.374       .  S
O1668      H1711   0.990       .  S
O1669      H1710   0.990       .  S
O1669      H1714   0.990       .  S
Zr1670     O2283   2.436       .  S
Zr1670     O1672   2.431       .  S
Zr1670     O2286   2.375       .  S
Zr1670     O2285   2.371       .  S
Zr1670     O1698   2.373       .  S
Zr1670     O1700   2.374       .  S
O1671     Zr2282   2.434       .  S
O1671      H1712   0.990       .  S
O1671      H1715   0.991       .  S
O1672      H1705   0.990       .  S
O1673     Zr2282   2.375       .  S
O1673     Zr2305   2.378       .  S
O1674     Zr2282   2.373       .  S
O1674     Zr1694   2.386   1_545  S
O1674      H1701   0.966       .  S
O1675     Zr1687   2.440       .  S
O1675      C2289   1.287       .  A
O1676      C2289   1.286       .  A
C1677      O2287   1.285       .  A
C1677      O2288   1.286       .  A
C1677      C1768   1.463       .  S
O1678     Zr1690   2.446       .  S
O1679     Zr1693   2.425       .  S
C1680      C1721   1.489   1_554  S
O1681     Zr1690   2.454       .  S
O1682     Zr2306   2.409       .  S
C1683      C1738   1.486       .  S
O1684     Zr1687   2.457       .  S
O1684      C2298   1.291   1_565  A
O1685      C1686   1.289       .  A
C1686      O2296   1.289       .  A
C1686      C1758   1.492       .  S
Zr1687     O2300   2.435       .  S
Zr1687     O1689   2.434   1_565  S
Zr1687     O2307   2.375       .  S
Zr1687     O2308   2.372       .  S
Zr1687     O1699   2.368   1_565  S
Zr1687     O1697   2.377   1_565  S
O1688     Zr2299   2.435       .  S
O1688      H1708   0.990       .  S
O1688      H1713   0.990       .  S
O1689      H1709   0.990       .  S
Zr1690     O1692   2.437       .  S
Zr1690     O1700   2.370       .  S
Zr1690     O1698   2.375       .  S
O1691      H1707   0.990       .  S
O1692      H1706   0.990       .  S
O1692      H1716   0.991       .  S
Zr1693     O2268   2.415       .  S
Zr1693     O2285   2.386       .  S
Zr1693     O1698   2.385       .  S
Zr1693     O2005   2.388       .  S
Zr1694     O2294   2.424       .  S
Zr1694     O2001   2.384       .  S
Zr1694     O2312   2.377       .  S
O1695     Zr2299   2.373       .  S
O1695     Zr2000   2.381       .  S
O1695      H1703   0.966       .  S
O1696     Zr2299   2.369       .  S
O1698      H1702   0.966       .  S
O1699     Zr1999   2.383       .  S
O1699      H1704   0.966       .  S
O1700     Zr2306   2.380       .  S
C1717      C1718   1.415       .  A
C1717      C1722   1.409       .  A
C1717     Br1724   1.927       .  S
C1719      C1720   1.410       .  A
C1719     Br1726   1.932       .  S
C1720      C1721   1.414       .  A
C1720     Br1725   1.930       .  S
C1722     Br1723   1.934       .  S
C1727      C1732   1.409       .  A
C1727     Br1734   1.931       .  S
C1728      C1729   1.416       .  A
C1729      C1730   1.408       .  A
C1729     Br1736   1.934       .  S
C1730      C1731   1.413       .  A
C1730     Br1735   1.930       .  S
C1732     Br1733   1.931       .  S
C1737      C1738   1.413       .  A
C1737      C1742   1.407       .  A
C1737     Br1744   1.931       .  S
C1739      C1740   1.405       .  A
C1739     Br1746   1.927       .  S
C1740     Br1745   1.934       .  S
C1741      C1742   1.412       .  A
C1742     Br1743   1.930       .  S
C1747      C1752   1.414       .  A
C1747     Br1754   1.934       .  S
C1748      C1749   1.415       .  A
C1749      C1750   1.409       .  A
C1749     Br1756   1.934       .  S
C1750     Br1755   1.937       .  S
C1751      C1752   1.415       .  A
C1752     Br1753   1.932       .  S
C1757      C2370   1.415   1_565  A
C1757      C1762   1.414       .  A
C1757     Br1764   1.929       .  S
C1758      C2369   1.413       .  A
C1758      C1759   1.413       .  A
C1759      C1760   1.411       .  A
C1759     Br1766   1.932       .  S
C1760      C2373   1.416       .  A
C1760     Br1765   1.932       .  S
C1761      C2372   1.417       .  A
C1761      C1762   1.414   1_545  A
C1762     Br1763   1.931       .  S
C1767      C1768   1.407       .  A
C1767      C1772   1.406       .  A
C1767     Br1774   1.925       .  S
C1768      C2381   1.405       .  A
C1769      C2380   1.407   1_545  A
C1769      C1770   1.405       .  A
C1769     Br1776   1.932       .  S
C1770      C2383   1.407   1_545  A
C1770     Br1775   1.921       .  S
C1771      C2382   1.408       .  A
C1771      C1772   1.409       .  A
C1772     Br1773   1.929       .  S
C1777      C2390   1.413       .  A
C1777      C1782   1.411       .  A
C1777     Br1784   1.932       .  S
C1778      C2389   1.417   1_565  A
C1778      C1779   1.410       .  A
C1779      C1780   1.408       .  A
C1779     Br1786   1.933       .  S
C1780      C2393   1.419       .  A
C1780     Br1785   1.933       .  S
C1781      C2392   1.417       .  A
C1781      C1782   1.417       .  A
C1782     Br1783   1.931       .  S
C1787      C2400   1.416       .  A
C1787      C1792   1.412       .  A
C1787     Br1794   1.933       .  S
C1788      C2399   1.416   1_545  A
C1788      C1789   1.411       .  A
C1789      C1790   1.413       .  A
C1789     Br1796   1.933       .  S
C1790      C1791   1.420   1_545  A
C1790     Br1795   1.927       .  S
C1791      C2404   1.418       .  A
C1792      C2403   1.418       .  A
C1792     Br1793   1.932       .  S
C1797      C1798   1.411   1_655  A
C1797      C1802   1.405       .  A
C1797     Br1804   1.925       .  S
C1799      C1800   1.406       .  A
C1799     Br1806   1.926       .  S
C1800      C1801   1.409       .  A
C1800     Br1805   1.932       .  S
C1802     Br1803   1.933       .  S
C1807      C1808   1.416       .  A
C1807      C1812   1.413       .  A
C1807     Br1814   1.930       .  S
C1809      C1810   1.412       .  A
C1809     Br1816   1.931       .  S
C1810     Br1815   1.930       .  S
C1811      C1812   1.417       .  A
C1812     Br1813   1.933       .  S
C1817      C1818   1.408       .  A
C1817      C1822   1.406       .  A
C1817     Br1824   1.932       .  S
C1819      C1820   1.403       .  A
C1819     Br1826   1.933       .  S
C1820      C1821   1.408       .  A
C1820     Br1825   1.925       .  S
C1822     Br1823   1.929       .  S
C1827      C1832   1.409       .  A
C1827     Br1834   1.930       .  S
C1828      C1829   1.408       .  A
C1829      C1830   1.407       .  A
C1829     Br1836   1.925       .  S
C1830      C1831   1.408       .  A
C1830     Br1835   1.930       .  S
C1832     Br1833   1.930       .  S
O1837     Zr1849   2.472       .  S
O1837      C1839   1.293       .  A
O1838      C1839   1.288       .  A
C1839      C2097   1.503       .  S
O1840     Zr1852   2.434       .  S
O1840      C1842   1.285       .  A
O1841      C1842   1.287       .  A
C1842      C2104   1.473       .  S
O1843     Zr1852   2.422       .  S
O1843      C1845   1.283       .  A
O1844     Zr1875   2.452       .  S
C1845      C2137   1.475       .  S
O1846     Zr1849   2.455       .  S
O1846      C1848   1.291       .  A
O1847     Zr1876   2.448   1_655  S
C1848      C2067   1.504       .  S
Zr1849     O1850   2.436       .  S
Zr1849     O1855   2.372       .  S
Zr1849     O1856   2.376       .  S
O1850      H1893   0.990       .  S
O1851      H1892   0.990       .  S
O1851      H1896   0.989       .  S
Zr1852     O1853   2.436   1_455  S
Zr1852     O1856   2.373   1_455  S
Zr1852     O1855   2.376   1_455  S
O1853      H1894   0.990       .  S
O1853      H1897   0.990       .  S
O1854      H1887   0.990       .  S
O1856      H1883   0.965       .  S
O1857     Zr1869   2.478       .  S
O1857      C1859   1.296       .  A
O1858     Zr1876   2.428   1_665  S
C1859      C2117   1.507       .  S
O1860     Zr1872   2.469   1_565  S
O1860      C1862   1.293       .  A
O1861     Zr1875   2.428       .  S
C1862      C2087   1.506       .  S
O1863     Zr1872   2.432       .  S
O1863      C1865   1.286       .  A
O1864      C1865   1.290       .  A
C1865      C2077   1.474       .  S
O1866     Zr1869   2.448       .  S
O1866      C1868   1.289       .  A
O1867      C1868   1.288       .  A
C1868      C2127   1.477       .  S
Zr1869     O1870   2.434       .  S
Zr1869     O1877   2.359       .  S
Zr1869     O1878   2.377       .  S
O1870      H1890   0.990       .  S
O1870      H1895   0.990       .  S
O1871      H1891   0.990       .  S
Zr1872     O1873   2.433   1_545  S
Zr1872     O1878   2.364   1_545  S
Zr1872     O1877   2.384   1_545  S
O1873      H1889   0.990       .  S
O1874      H1888   0.990       .  S
O1874      H1898   0.990       .  S
Zr1875     O1880   2.387       .  S
Zr1876     O1879   2.380   1_445  S
O1877      H1885   0.965       .  S
O1880      H1884   0.966       .  S
O1881      H1886   0.966       .  S
O1899     Zr1911   2.440       .  S
O1899      C1901   1.286       .  A
O1900     Zr1937   2.441   1_554  S
C1901      C2134   1.473       .  S
O1902     Zr1914   2.472   1_556  S
O1902      C1904   1.294       .  A
O1903     Zr1938   2.411   1_656  S
O1903      C1904   1.283       .  A
C1904      C2024   1.491       .  S
O1905     Zr1914   2.451       .  S
O1905      C1907   1.290       .  A
O1906      C1907   1.286       .  A
C1907      C2034   1.490       .  S
O1908     Zr1911   2.415       .  S
O1908      C1910   1.282       .  A
O1909     Zr1938   2.445       .  S
O1909      C1910   1.290   1_455  A
C1910      C2124   1.468       .  S
Zr1911     O1912   2.435       .  S
Zr1911     O1917   2.364       .  S
Zr1911     O1918   2.380       .  S
O1912      H1955   0.990       .  S
O1913      H1954   0.990       .  S
O1913      H1958   0.990       .  S
Zr1914     O1915   2.437       .  S
Zr1914     O2222   2.433   1_554  S
Zr1914     O1918   2.364       .  S
Zr1914     O1917   2.379       .  S
Zr1914     O2248   2.378   1_554  S
Zr1914     O2250   2.372   1_554  S
O1915      H1956   0.990       .  S
O1915      H1959   0.990       .  S
O1916     Zr2220   2.435       .  S
O1916      H1949   0.990       .  S
O1918     Zr1938   2.381   1_655  S
O1918      H1945   0.967       .  S
O1919     Zr2237   2.462       .  S
O1919      C1921   1.293       .  A
O1920      C2227   1.284       .  A
C1921      O2226   1.281       .  A
C1921      C2047   1.490       .  S
O1922     Zr1934   2.430       .  S
O1922      C1924   1.285       .  A
O1923     Zr2243   2.435       .  S
O1923      C1924   1.289       .  A
C1924      C2107   1.478       .  S
O1925     Zr1934   2.460       .  S
O1925      C1927   1.292       .  A
O1926     Zr2244   2.435       .  S
C1927      C2114   1.503       .  S
O1928     Zr1931   2.451       .  S
O1928      C2236   1.290       .  A
O1929     Zr1937   2.436       .  S
O1929      C2236   1.289       .  A
C1930      O2234   1.292       .  A
C1930      O2235   1.286       .  A
C1930      C2057   1.496       .  S
Zr1931     O2225   2.444       .  S
Zr1931     O2238   2.433       .  S
Zr1931     O1933   2.434   1_556  S
Zr1931     O2245   2.374       .  S
Zr1931     O2246   2.364       .  S
Zr1931     O1943   2.368   1_556  S
Zr1931     O1941   2.381   1_556  S
O1932     Zr2237   2.431       .  S
O1932      H1952   0.989       .  S
O1932      H1957   0.990       .  S
O1933      H1953   0.990       .  S
Zr1934     O1935   2.433       .  S
Zr1934     O1940   2.376       .  S
Zr1934     O1939   2.367       .  S
O1935      H1951   0.990       .  S
O1936      H1950   0.990       .  S
O1936      H1960   0.990       .  S
Zr1937     O2229   2.435       .  S
Zr1937     O2246   2.382       .  S
Zr1937     O1943   2.380   1_556  S
Zr1938     O2232   2.434   1_554  S
Zr1938     O2250   2.376   1_454  S
O1939     Zr2237   2.370       .  S
O1939      H1947   0.966       .  S
O1940     Zr2237   2.372       .  S
O1940     Zr2243   2.382       .  S
O1942     Zr2220   2.374       .  S
O1942      H1946   0.967       .  S
O1943      H1948   0.966       .  S
O1944     Zr2220   2.371       .  S
O1944     Zr2244   2.378       .  S
O1961     Zr1973   2.449       .  S
O1961      C1963   1.289   1_556  A
O1962      C1963   1.287       .  A
C1963      C2037   1.488       .  S
O1964     Zr1976   2.464       .  S
O1965     Zr2000   2.425   1_554  S
O1965      C1966   1.286       .  A
C1966      C2084   1.495       .  S
O1967     Zr1976   2.463   1_545  S
O1968     Zr1999   2.435   1_554  S
C1969      C2094   1.495       .  S
O1970     Zr1973   2.464       .  S
O1970      C1972   1.293       .  A
O1971     Zr2000   2.423       .  S
O1971      C1972   1.285       .  A
C1972      C2054   1.493       .  S
Zr1973     O1974   2.431   1_556  S
Zr1973     O2281   2.435       .  S
Zr1973     O1979   2.380   1_556  S
Zr1973     O1980   2.373   1_556  S
Zr1973     O2309   2.370       .  S
Zr1973     O2311   2.378       .  S
O1974      H2017   0.990       .  S
O1975     Zr2279   2.435       .  S
O1975      H2016   0.990       .  S
O1975      H2020   0.990       .  S
Zr1976     O1978   2.430       .  S
Zr1976     O2004   2.375       .  S
Zr1976     O2006   2.376       .  S
O1977      H2018   0.990       .  S
O1977      H2021   0.990       .  S
O1978      H2011   0.990       .  S
O1980     Zr2000   2.384   1_554  S
O1980      H2007   0.966       .  S
O1981     Zr1993   2.443       .  S
O1982     Zr2306   2.435       .  S
C1983      C2074   1.475       .  S
O1984     Zr1996   2.447       .  S
O1984      C2292   1.289       .  A
O1985     Zr1999   2.425   1_565  S
O1985      C2292   1.287       .  A
C1986      O2290   1.288       .  A
C1986      O2291   1.286       .  A
C1986      C2027   1.480       .  S
O1987     Zr1996   2.463       .  S
O1987      C2295   1.292       .  A
O1988      C2295   1.282       .  A
C1989      O2293   1.288       .  A
C1989      O2294   1.287       .  A
C1989      C2044   1.488       .  S
O1990     Zr1993   2.456       .  S
O1991     Zr2305   2.446       .  S
O1991      C1992   1.291   1_545  A
C1992      C2064   1.501   1_565  S
Zr1993     O1995   2.433       .  S
Zr1993     O2005   2.369       .  S
Zr1993     O2003   2.376       .  S
O1994      H2014   0.990       .  S
O1994      H2019   0.990       .  S
O1995      H2015   0.990       .  S
Zr1996     O2303   2.431       .  S
Zr1996     O1998   2.435   1_556  S
Zr1996     O2308   2.378       .  S
Zr1996     O2307   2.368       .  S
Zr1996     O2006   2.372   1_556  S
Zr1996     O2004   2.375   1_556  S
O1997     Zr2302   2.430       .  S
O1997      H2013   0.989       .  S
O1998      H2012   0.990       .  S
O1998      H2022   0.990       .  S
Zr1999     O2297   2.437       .  S
Zr1999     O2308   2.380   1_545  S
Zr1999     O2004   2.388   1_546  S
Zr2000     O2288   2.422       .  S
Zr2000     O2309   2.381       .  S
O2001     Zr2302   2.375       .  S
O2001      H2009   0.966       .  S
O2002     Zr2302   2.375       .  S
O2002     Zr2305   2.383   1_565  S
O2003     Zr2279   2.366       .  S
O2003     Zr2306   2.379       .  S
O2004      H2008   0.966       .  S
O2005     Zr2279   2.378       .  S
O2005      H2010   0.967       .  S
C2023      C2024   1.416   1_554  A
C2023      C2028   1.410       .  A
C2023     Br2030   1.929       .  S
C2024      C2331   1.411       .  A
C2025      C2330   1.414       .  A
C2025      C2026   1.408       .  A
C2025     Br2032   1.931       .  S
C2026      C2027   1.411       .  A
C2026     Br2031   1.933       .  S
C2027      C2334   1.410       .  A
C2028      C2333   1.412   1_554  A
C2028     Br2029   1.934       .  S
C2033      C2340   1.421       .  A
C2033      C2038   1.407       .  A
C2033     Br2040   1.934       .  S
C2034      C2339   1.416   1_554  A
C2034      C2035   1.416       .  A
C2035      C2036   1.409       .  A
C2035     Br2042   1.934       .  S
C2036      C2037   1.413       .  A
C2036     Br2041   1.932       .  S
C2037      C2344   1.414   1_554  A
C2038      C2343   1.411       .  A
C2038     Br2039   1.937       .  S
C2043      C2044   1.413       .  A
C2043      C2048   1.405       .  A
C2043     Br2050   1.929       .  S
C2044      C2351   1.414       .  A
C2045      C2350   1.416   1_554  A
C2045      C2046   1.407       .  A
C2045     Br2052   1.932       .  S
C2046      C2353   1.419   1_554  A
C2046     Br2051   1.941       .  S
C2047      C2352   1.417       .  A
C2047      C2048   1.410       .  A
C2048     Br2049   1.930       .  S
C2053      C2360   1.415       .  A
C2053      C2058   1.413       .  A
C2053     Br2060   1.933       .  S
C2054      C2359   1.416       .  A
C2054      C2055   1.412   1_556  A
C2055      C2056   1.410       .  A
C2055     Br2062   1.932       .  S
C2056      C2363   1.415   1_554  A
C2056     Br2061   1.932       .  S
C2057      C2362   1.415       .  A
C2057      C2058   1.419       .  A
C2058     Br2059   1.933       .  S
C2063      C2068   1.418       .  A
C2063     Br2070   1.932       .  S
C2064      C2065   1.416       .  A
C2065      C2066   1.413       .  A
C2065     Br2072   1.931       .  S
C2066     Br2071   1.935       .  S
C2067      C2068   1.418       .  A
C2068     Br2069   1.928       .  S
C2073      C2074   1.409   1_565  A
C2073      C2078   1.408       .  A
C2073     Br2080   1.930       .  S
C2075      C2076   1.408       .  A
C2075     Br2082   1.930       .  S
C2076     Br2081   1.923       .  S
C2077      C2078   1.409   1_545  A
C2078     Br2079   1.931       .  S
C2083      C2088   1.416       .  A
C2083     Br2090   1.937       .  S
C2084      C2085   1.411       .  A
C2085      C2086   1.411       .  A
C2085     Br2092   1.932       .  S
C2086     Br2091   1.931       .  S
C2087      C2088   1.422   1_565  A
C2088     Br2089   1.936       .  S
C2093      C2098   1.413       .  A
C2093     Br2100   1.932       .  S
C2094      C2095   1.415       .  A
C2095      C2096   1.415       .  A
C2095     Br2102   1.935       .  S
C2096      C2097   1.420       .  A
C2096     Br2101   1.931       .  S
C2098     Br2099   1.928       .  S
C2103      C2104   1.410   1_655  A
C2103      C2108   1.405       .  A
C2103     Br2110   1.925       .  S
C2105      C2106   1.409       .  A
C2105     Br2112   1.928       .  S
C2106      C2107   1.411       .  A
C2106     Br2111   1.932       .  S
C2108     Br2109   1.929       .  S
C2113      C2114   1.418       .  A
C2113      C2118   1.417       .  A
C2113     Br2120   1.933       .  S
C2115      C2116   1.411       .  A
C2115     Br2122   1.930       .  S
C2116     Br2121   1.932       .  S
C2117      C2118   1.422       .  A
C2118     Br2119   1.934       .  S
C2123      C2124   1.409       .  A
C2123      C2128   1.406       .  A
C2123     Br2130   1.932       .  S
C2125      C2126   1.409       .  A
C2125     Br2132   1.930       .  S
C2126      C2127   1.409       .  A
C2126     Br2131   1.923       .  S
C2128     Br2129   1.927       .  S
C2133      C2138   1.409       .  A
C2133     Br2140   1.922       .  S
C2134      C2135   1.408       .  A
C2135      C2136   1.406       .  A
C2135     Br2142   1.928       .  S
C2136      C2137   1.409   1_655  A
C2136     Br2141   1.931       .  S
C2138     Br2139   1.933       .  S
O2143     Zr2155   2.466       .  S
O2143      C2145   1.292       .  A
O2144      C2145   1.285       .  A
C2145      C2403   1.506       .  S
O2146     Zr2158   2.461       .  S
O2146      C2148   1.291       .  A
O2147      C2148   1.285       .  A
C2148      C2410   1.479       .  S
O2149     Zr2158   2.437       .  S
O2149      C2151   1.286       .  A
O2150     Zr2181   2.450       .  S
C2151      C2443   1.475       .  S
O2152     Zr2155   2.447       .  S
O2152      C2154   1.289       .  A
O2153     Zr2182   2.455   1_655  S
C2154      C2373   1.496       .  S
Zr2155     O2156   2.435       .  S
Zr2155     O2161   2.370       .  S
Zr2155     O2162   2.376       .  S
O2156      H2199   0.990       .  S
O2157      H2198   0.989       .  S
O2157      H2202   0.990       .  S
Zr2158     O2159   2.436   1_455  S
Zr2158     O2162   2.366   1_455  S
Zr2158     O2161   2.377   1_455  S
O2159      H2200   0.990       .  S
O2159      H2203   0.990       .  S
O2160      H2193   0.990       .  S
O2162      H2189   0.965       .  S
O2163     Zr2175   2.473       .  S
O2163      C2165   1.294       .  A
O2164     Zr2182   2.412   1_565  S
C2165      C2423   1.496       .  S
O2166     Zr2178   2.447       .  S
O2166      C2168   1.289       .  A
O2167     Zr2181   2.436       .  S
C2168      C2393   1.496       .  S
O2169     Zr2178   2.424   1_545  S
O2169      C2171   1.283   1_545  A
O2170      C2171   1.290       .  A
C2171      C2383   1.470       .  S
O2172     Zr2175   2.441       .  S
O2172      C2174   1.288       .  A
O2173      C2174   1.286       .  A
C2174      C2433   1.468       .  S
Zr2175     O2176   2.437       .  S
Zr2175     O2183   2.364       .  S
Zr2175     O2184   2.373       .  S
O2176      H2196   0.990       .  S
O2176      H2201   0.990       .  S
O2177      H2197   0.990       .  S
Zr2178     O2179   2.436       .  S
Zr2178     O2184   2.361       .  S
Zr2178     O2183   2.380       .  S
O2179      H2195   0.990       .  S
O2180      H2194   0.990       .  S
O2180      H2204   0.990       .  S
Zr2181     O2186   2.384       .  S
Zr2182     O2185   2.388   1_445  S
O2183      H2191   0.965       .  S
O2186      H2190   0.966       .  S
O2187      H2192   0.966       .  S
O2205     Zr2217   2.451       .  S
O2205      C2207   1.288       .  A
O2206     Zr2243   2.428       .  S
C2207      C2440   1.479       .  S
O2208     Zr2220   2.471       .  S
O2208      C2210   1.294       .  A
O2209     Zr2244   2.421       .  S
O2209      C2210   1.285       .  A
C2210      C2330   1.492       .  S
O2211     Zr2220   2.462       .  S
O2211      C2213   1.292       .  A
O2212      C2213   1.283       .  A
C2213      C2340   1.495       .  S
O2214     Zr2217   2.431       .  S
O2214      C2216   1.285       .  A
O2215     Zr2244   2.434   1_455  S
O2215      C2216   1.288       .  A
C2216      C2430   1.468       .  S
Zr2217     O2218   2.436   1_455  S
Zr2217     O2223   2.366   1_455  S
Zr2217     O2224   2.377   1_455  S
O2218      H2261   0.990       .  S
O2219      H2260   0.990       .  S
O2219      H2264   0.990       .  S
Zr2220     O2221   2.436       .  S
Zr2220     O2224   2.367       .  S
Zr2220     O2223   2.377       .  S
O2221      H2262   0.990       .  S
O2221      H2265   0.990       .  S
O2222      H2255   0.990       .  S
O2224     Zr2244   2.390       .  S
O2224      H2251   0.967       .  S
O2225      C2227   1.288       .  A
C2227      C2353   1.492       .  S
O2228     Zr2240   2.402       .  S
O2228      C2230   1.280       .  A
O2229      C2230   1.289       .  A
C2230      C2413   1.460       .  S
O2231     Zr2240   2.444       .  S
O2231      C2233   1.288       .  A
C2233      C2420   1.486       .  S
O2234     Zr2237   2.462       .  S
O2235     Zr2243   2.425       .  S
C2236      C2363   1.493       .  S
Zr2237     O2239   2.435       .  S
Zr2237     O2249   2.371       .  S
Zr2237     O2247   2.375       .  S
O2238      H2258   0.989       .  S
O2238      H2263   0.990       .  S
O2239      H2259   0.990       .  S
Zr2240     O2241   2.435       .  S
Zr2240     O2246   2.380       .  S
Zr2240     O2245   2.360       .  S
O2241      H2257   0.990       .  S
O2242      H2256   0.990       .  S
O2242      H2266   0.990       .  S
Zr2243     O2249   2.382       .  S
O2245      H2253   0.966       .  S
O2248      H2252   0.967       .  S
O2249      H2254   0.966       .  S
O2267     Zr2279   2.445       .  S
O2267      C2269   1.288       .  A
O2268      C2269   1.285       .  A
C2269      C2343   1.484       .  S
O2270     Zr2282   2.459       .  S
O2271     Zr2306   2.422       .  S
O2271      C2272   1.286       .  A
C2272      C2390   1.488       .  S
O2273     Zr2282   2.449       .  S
O2274     Zr2305   2.447       .  S
C2275      C2400   1.500       .  S
O2276     Zr2279   2.462       .  S
O2276      C2278   1.292       .  A
O2277     Zr2306   2.416       .  S
O2277      C2278   1.284       .  A
C2278      C2360   1.491       .  S
Zr2279     O2280   2.428       .  S
Zr2279     O2285   2.379       .  S
Zr2279     O2286   2.373       .  S
O2280      H2323   0.990       .  S
O2281      H2322   0.990       .  S
O2281      H2326   0.990       .  S
Zr2282     O2284   2.430   1_545  S
Zr2282     O2310   2.374   1_545  S
Zr2282     O2312   2.369   1_545  S
O2283      H2324   0.990       .  S
O2283      H2327   0.991       .  S
O2284      H2317   0.989       .  S
O2286     Zr2306   2.388       .  S
O2286      H2313   0.967       .  S
O2287     Zr2299   2.426       .  S
C2289      C2380   1.472       .  S
O2290     Zr2302   2.441       .  S
O2291     Zr2305   2.420   1_565  S
C2292      C2333   1.487       .  S
O2293     Zr2302   2.446       .  S
C2295      C2350   1.488       .  S
O2296     Zr2299   2.448       .  S
O2297      C2298   1.289       .  A
C2298      C2370   1.496       .  S
Zr2299     O2301   2.432       .  S
Zr2299     O2311   2.365       .  S
Zr2299     O2309   2.380       .  S
O2300      H2320   0.990       .  S
O2300      H2325   0.990       .  S
O2301      H2321   0.990       .  S
Zr2302     O2304   2.436       .  S
Zr2302     O2312   2.367       .  S
Zr2302     O2310   2.371       .  S
O2303      H2319   0.990       .  S
O2304      H2318   0.990       .  S
O2304      H2328   0.990       .  S
Zr2305     O2310   2.387   1_545  S
O2307      H2315   0.966       .  S
O2310      H2314   0.966       .  S
O2311      H2316   0.966       .  S
C2329      C2330   1.417       .  A
C2329      C2334   1.410       .  A
C2329     Br2336   1.926       .  S
C2331      C2332   1.411       .  A
C2331     Br2338   1.931       .  S
C2332      C2333   1.414       .  A
C2332     Br2337   1.930       .  S
C2334     Br2335   1.935       .  S
C2339      C2344   1.410       .  A
C2339     Br2346   1.934       .  S
C2340      C2341   1.417       .  A
C2341      C2342   1.410       .  A
C2341     Br2348   1.933       .  S
C2342      C2343   1.412       .  A
C2342     Br2347   1.933       .  S
C2344     Br2345   1.932       .  S
C2349      C2350   1.411       .  A
C2349      C2354   1.408       .  A
C2349     Br2356   1.934       .  S
C2351      C2352   1.409       .  A
C2351     Br2358   1.927       .  S
C2352     Br2357   1.935       .  S
C2353      C2354   1.418       .  A
C2354     Br2355   1.932       .  S
C2359      C2364   1.413       .  A
C2359     Br2366   1.931       .  S
C2360      C2361   1.411       .  A
C2361      C2362   1.409       .  A
C2361     Br2368   1.932       .  S
C2362     Br2367   1.931       .  S
C2363      C2364   1.415       .  A
C2364     Br2365   1.932       .  S
C2369      C2374   1.414       .  A
C2369     Br2376   1.931       .  S
C2370      C2371   1.414       .  A
C2371      C2372   1.412       .  A
C2371     Br2378   1.933       .  S
C2372     Br2377   1.932       .  S
C2373      C2374   1.415       .  A
C2374     Br2375   1.927       .  S
C2379      C2380   1.411       .  A
C2379      C2384   1.408       .  A
C2379     Br2386   1.926       .  S
C2381      C2382   1.404       .  A
C2381     Br2388   1.933       .  S
C2382     Br2387   1.918       .  S
C2383      C2384   1.407       .  A
C2384     Br2385   1.932       .  S
C2389      C2394   1.411       .  A
C2389     Br2396   1.935       .  S
C2390      C2391   1.410       .  A
C2391      C2392   1.410       .  A
C2391     Br2398   1.933       .  S
C2392     Br2397   1.930       .  S
C2393      C2394   1.419   1_565  A
C2394     Br2395   1.936       .  S
C2399      C2404   1.414       .  A
C2399     Br2406   1.932       .  S
C2400      C2401   1.416       .  A
C2401      C2402   1.414       .  A
C2401     Br2408   1.935       .  S
C2402      C2403   1.422       .  A
C2402     Br2407   1.934       .  S
C2404     Br2405   1.932       .  S
C2409      C2410   1.412   1_655  A
C2409      C2414   1.407       .  A
C2409     Br2416   1.926       .  S
C2411      C2412   1.405       .  A
C2411     Br2418   1.922       .  S
C2412      C2413   1.407       .  A
C2412     Br2417   1.934       .  S
C2414     Br2415   1.932       .  S
C2419      C2420   1.411       .  A
C2419      C2424   1.409       .  A
C2419     Br2426   1.931       .  S
C2421      C2422   1.409       .  A
C2421     Br2428   1.928       .  S
C2422     Br2427   1.932       .  S
C2423      C2424   1.420       .  A
C2424     Br2425   1.931       .  S
C2429      C2430   1.409   1_655  A
C2429      C2434   1.409       .  A
C2429     Br2436   1.932       .  S
C2431      C2432   1.404       .  A
C2431     Br2438   1.932       .  S
C2432      C2433   1.409       .  A
C2432     Br2437   1.924       .  S
C2434     Br2435   1.929       .  S
C2439      C2444   1.408       .  A
C2439     Br2446   1.925       .  S
C2440      C2441   1.408   1_455  A
C2441      C2442   1.408       .  A
C2441     Br2448   1.926       .  S
C2442      C2443   1.408   1_655  A
C2442     Br2447   1.929       .  S
C2444     Br2445   1.932       .  S
