geometry optimzed in LAMMPS
_audit_creation_date              2020-11-30 
_audit_creation_method            'lammps2cif' 
_symmetry_space_group_name_H-M    'P1' 
_symmetry_Int_Tables_number       1 
_symmetry_cell_setting            triclinic 
loop_ 
_symmetry_equiv_pos_as_xyz 
  x,y,z 
_cell_length_a                    32.65210102632894 
_cell_length_b                    32.64715483325103 
_cell_length_c                    32.6520385782741 
_cell_angle_alpha                 90.06030990878598 
_cell_angle_beta                  90.01772382453134 
_cell_angle_gamma                 90.06716580259422 
loop_ 
_atom_site_label 
_atom_site_type_symbol 
_atom_site_fract_x 
_atom_site_fract_y 
_atom_site_fract_z 
_atom_site_charge 
C1          C  0.12027855  0.99766669  0.15264433     0.42110
N2          N  0.08214663  0.01713027  0.20219279     0.01000
C3          C  0.45816787  0.39334741  0.32254381    -0.06880
H4          H  0.42491373  0.39096018  0.16565121     0.06490
C5          C  0.38956327  0.03915806  0.17246730    -0.07230
Co6        Co  0.04701174  0.44560686  0.24757323     0.74180
N7          N  0.47204177  0.41791105  0.20339289    -0.26410
Co8        Co  0.44103214  0.45075798  0.24820763     0.74070
C9          C  0.37275151  0.00237417  0.15338876     0.42210
N10         N  0.48050937  0.08676950  0.20268680     0.00610
N11         N  0.41097842  0.48474132  0.20348877     0.00720
N12         N  0.02747879  0.39096188  0.32117800    -0.47260
H13         H  0.10798627  0.42959794  0.16601978     0.06480
N14         N  0.01240043  0.41564954  0.20286084     0.01000
N15         N  0.41126020  0.48523541  0.29300919     0.00740
C16         C  0.37304092  0.50468986  0.34250076     0.42350
N17         N  0.02090657  0.08494508  0.20264943    -0.25870
C18         C  0.10360103  0.46321314  0.32287294    -0.06790
N19         N  0.10647652  0.03103611  0.17278975    -0.46970
N20         N  0.38687642  0.47132542  0.32236778    -0.47190
C21         C  0.12031550  0.49999626  0.34202159     0.42120
N22         N  0.01291389  0.41562086  0.29248857     0.00990
N23         N  0.02138953  0.08449468  0.29177104    -0.25890
N24         N  0.07988158  0.47675363  0.20276750    -0.26380
N25         N  0.48103168  0.08674669  0.29232024     0.00630
H26         H  0.06854023  0.11152734  0.32942820     0.06520
H27         H  0.38534995  0.07276088  0.32914387     0.06560
N28         N  0.47252011  0.41745109  0.29253776    -0.26430
N29         N  0.41294218  0.02513708  0.20319831    -0.26040
N30         N  0.08235523  0.01762819  0.29173255     0.01000
C31         C  0.99295819  0.37881836  0.15227071     0.42390
C32         C  0.03527256  0.10910967  0.17269572    -0.07290
N33         N  0.41353074  0.02561373  0.29244441    -0.26040
H34         H  0.38422591  0.07102090  0.16515351     0.06540
N35         N  0.02631163  0.39211780  0.17280788    -0.47260
H36         H  0.06721408  0.11493644  0.16607060     0.06530
C37         C  0.50050219  0.12366658  0.34284008     0.42230
C38         C  0.10293456  0.46171239  0.17242129    -0.06790
Co39       Co  0.05237557  0.05162023  0.24698089     0.73820
N40         N  0.46596043  0.11148605  0.17403586    -0.46980
C41         C  0.49471008  0.37611446  0.34146418     0.42490
N42         N  0.10614737  0.03252020  0.32103627    -0.46970
Co43       Co  0.44639458  0.05677222  0.24762067     0.73890
C44         C  0.39043115  0.04064730  0.32276123    -0.07300
C45         C  0.45700999  0.39559629  0.17245288    -0.06860
N46         N  0.08038466  0.47723517  0.29202541    -0.26390
N47         N  0.38703832  0.46985091  0.17429996    -0.47150
H48         H  0.42622943  0.38755084  0.32920991     0.06500
C49         C  0.03644014  0.10686475  0.32266287    -0.07270
Cl50       Cl  0.99670014  0.00119152  0.24758716    -0.50270
C51         C  0.99873782  0.12638032  0.15378972     0.42260
H52         H  0.10886392  0.43135181  0.33024655     0.06470
N53         N  0.46713768  0.11032503  0.32234516    -0.46990
C54         C  0.99672880  0.15861478  0.12268130     0.42110
N55         N  0.01422816  0.20837560  0.08384988     0.01000
C56         C  0.38874692  0.32365948  0.45789259    -0.06880
H57         H  0.38505674  0.16634944  0.42901403     0.06490
C58         C  0.03638575  0.17503445  0.39209527    -0.07230
Co59       Co  0.44146325  0.25117259  0.04831756     0.74180
N60         N  0.41387746  0.20461280  0.47469983    -0.26410
Co61       Co  0.44595982  0.24919406  0.44231302     0.74070
C62         C  0.00048371  0.15475243  0.37512374     0.42210
N63         N  0.08311868  0.20774083  0.48171937     0.00610
N64         N  0.48085295  0.20450691  0.41289667     0.00720
N65         N  0.38584209  0.32408070  0.02722398    -0.47260
H66         H  0.42811863  0.16987139  0.11126351     0.06480
N67         N  0.41218275  0.20515587  0.01509697     0.01000
N68         N  0.47922381  0.29409274  0.41133732     0.00740
C69         C  0.49672386  0.34390378  0.37258064     0.42350
N70         N  0.08112641  0.20870686  0.02209440    -0.25870
C71         C  0.45708006  0.32747610  0.10299734    -0.06790
N72         N  0.02926066  0.17949402  0.10805955    -0.46970
N73         N  0.46419170  0.32301005  0.38717479    -0.47190
C74         C  0.49298451  0.34775370  0.11996879     0.42120
N75         N  0.41029778  0.29472307  0.01342300     0.00990
N76         N  0.07948833  0.29787207  0.02044594    -0.25890
N77         N  0.47383048  0.20781447  0.08211426    -0.26380
N78         N  0.08118477  0.29731990  0.48005224     0.00630
H79         H  0.10805598  0.33634909  0.06611007     0.06520
H80         H  0.06533476  0.33263342  0.38397142     0.06560
N81         N  0.41229155  0.29374668  0.47304804    -0.26430
N82         N  0.02122526  0.20550486  0.41491981    -0.26040
N83         N  0.01260123  0.29795271  0.08225423     0.01000
C84         C  0.37414306  0.15474894  0.99764831     0.42390
C85         C  0.10458527  0.17872032  0.03723472    -0.07290
N86         N  0.01961956  0.29464964  0.41306390    -0.26040
H87         H  0.06851467  0.16899717  0.38677999     0.06540
N88         N  0.38838284  0.17593815  0.03014806    -0.47260
H89         H  0.10974415  0.17252067  0.06935961     0.06530
C90         C  0.11893289  0.34793750  0.49747063     0.42230
C91         C  0.45994765  0.17733213  0.10583836    -0.06790
Co92       Co  0.04747661  0.25326624  0.05284457     0.73820
N93         N  0.10748353  0.17831757  0.46790217    -0.46980
C94         C  0.37151037  0.34369238  0.49379555     0.42490
N95         N  0.02640130  0.32774438  0.10621000    -0.46970
Co96       Co  0.05196903  0.25129262  0.44683444     0.73890
C97         C  0.03350620  0.32516195  0.38938359    -0.07300
C98         C  0.39071541  0.17366100  0.46084298    -0.06860
N99         N  0.47223020  0.29697194  0.08021264    -0.26390
N100        N  0.46706139  0.17472951  0.38891862    -0.47150
H101        H  0.38354411  0.32980532  0.42576425     0.06500
C102        C  0.10247502  0.32895665  0.03428618    -0.07270
Cl103      Cl  0.99671489  0.25122439  0.49757843    -0.50270
C104        C  0.12175508  0.15865127  0.50132071     0.42260
H105        H  0.42495227  0.33353969  0.10828977     0.06470
N106        N  0.10481647  0.32665830  0.46498259    -0.46990
C107        C  0.34042363  0.37604494  0.49384631     0.42110
N108        N  0.29182474  0.41541955  0.01337698     0.01000
C109        C  0.17080831  0.03908662  0.39067440    -0.06880
H110        H  0.32777914  0.07277055  0.38627143     0.06490
C111        C  0.32210980  0.10751723  0.03616042    -0.07230
Co112      Co  0.24671350  0.45075251  0.44190209     0.74180
N113        N  0.29076345  0.02563676  0.41410652    -0.26410
Co114      Co  0.24607909  0.05677055  0.44721560     0.74070
C115        C  0.34178120  0.12383424  0.99961673     0.42210
N116        N  0.29142511  0.01768283  0.08299929     0.00610
N117        N  0.29101678  0.08662346  0.48142602     0.00720
N118        N  0.17267094  0.46977252  0.38816899    -0.47260
H119        H  0.32713184  0.38847125  0.42581119     0.06480
N120        N  0.29134147  0.48526197  0.41185512     0.01000
N121        N  0.20139880  0.08691676  0.48172021     0.00740
C122        C  0.15275241  0.12622348  0.50125208     0.42350
N123        N  0.29171118  0.47727922  0.08108349    -0.25870
C124        C  0.17098894  0.39507376  0.45894665    -0.06790
N125        N  0.32064401  0.39037694  0.02723192    -0.46970
N126        N  0.17255904  0.11193393  0.46786596    -0.47190
C127        C  0.15125668  0.37886181  0.49549707     0.42120
N128        N  0.20180175  0.48468378  0.41215476     0.00990
N129        N  0.20247392  0.47672298  0.08097792    -0.25890
N130        N  0.29130112  0.41766392  0.47300519    -0.26380
N131        N  0.20189457  0.01709496  0.08322564     0.00630
H132        H  0.16546549  0.42958591  0.10881679     0.06520
H133        H  0.16603070  0.11377909  0.06928380     0.06560
N134        N  0.20150487  0.02508241  0.41408718    -0.26430
N135        N  0.29104453  0.08474268  0.02181065    -0.26040
N136        N  0.20219613  0.41582051  0.01366901     0.01000
C137        C  0.34111327  0.50470340  0.37397965     0.42390
C138        C  0.32229214  0.46327038  0.10465169    -0.07290
N139        N  0.20191211  0.08465555  0.02208890    -0.26040
H140        H  0.32942696  0.11256940  0.06808652     0.06540
N141        N  0.32089706  0.47134339  0.38771174    -0.47260
H142        H  0.32944686  0.43140607  0.11019195     0.06530
C143        C  0.15212727  0.99765251  0.12109794     0.42230
C144        C  0.32105307  0.39387120  0.45792997    -0.06790
Co145      Co  0.24715612  0.44560054  0.04788824     0.73820
N146        N  0.32045327  0.03258782  0.10711866    -0.46980
C147        C  0.15177141  0.00228874  0.37385643     0.42490
N148        N  0.17228517  0.39264847  0.02826092    -0.46970
Co149      Co  0.24651965  0.05161242  0.05319728     0.73890
C150        C  0.17212388  0.10839814  0.03716455    -0.07300
C151        C  0.32123674  0.04066262  0.39119091    -0.06860
N152        N  0.20216340  0.41769794  0.47328753    -0.26390
N153        N  0.32082415  0.10994310  0.46684492    -0.47150
H154        H  0.16358597  0.07094891  0.38521109     0.06500
C155        C  0.17200048  0.46169392  0.10388880    -0.07270
Cl156      Cl  0.24663181  0.00118472  0.49755164    -0.50270
C157        C  0.34127382  0.50006819  0.12154956     0.42260
H158        H  0.16361518  0.39007972  0.42702479     0.06470
N159        N  0.17234037  0.03101238  0.10736768    -0.46990
C160        C  0.12027855  0.99766670  0.65264432     0.42110
N161        N  0.08214662  0.01713027  0.70219279     0.01000
C162        C  0.45816786  0.39334740  0.82254380    -0.06880
H163        H  0.42491373  0.39096020  0.66565119     0.06490
C164        C  0.38956327  0.03915807  0.67246731    -0.07230
Co165      Co  0.04701173  0.44560686  0.74757323     0.74180
N166        N  0.47204177  0.41791106  0.70339288    -0.26410
Co167      Co  0.44103214  0.45075798  0.74820762     0.74070
C168        C  0.37275151  0.00237418  0.65338876     0.42210
N169        N  0.48050937  0.08676951  0.70268681     0.00610
N170        N  0.41097843  0.48474133  0.70348877     0.00720
N171        N  0.02747878  0.39096186  0.82117798    -0.47260
H172        H  0.10798627  0.42959795  0.66601979     0.06480
N173        N  0.01240043  0.41564954  0.70286083     0.01000
N174        N  0.41126021  0.48523540  0.79300919     0.00740
C175        C  0.37304093  0.50468985  0.84250076     0.42350
N176        N  0.02090656  0.08494508  0.70264944    -0.25870
C177        C  0.10360102  0.46321314  0.82287294    -0.06790
N178        N  0.10647651  0.03103612  0.67278975    -0.46970
N179        N  0.38687642  0.47132541  0.82236778    -0.47190
C180        C  0.12031549  0.49999625  0.84202160     0.42120
N181        N  0.01291389  0.41562085  0.79248856     0.00990
N182        N  0.02138953  0.08449467  0.79177105    -0.25890
N183        N  0.07988158  0.47675364  0.70276750    -0.26380
N184        N  0.48103168  0.08674668  0.79232025     0.00630
H185        H  0.06854023  0.11152732  0.82942822     0.06520
H186        H  0.38534996  0.07276088  0.82914388     0.06560
N187        N  0.47252011  0.41745108  0.79253775    -0.26430
N188        N  0.41294218  0.02513708  0.70319831    -0.26040
N189        N  0.08235523  0.01762818  0.79173255     0.01000
C190        C  0.99295819  0.37881837  0.65227070     0.42390
C191        C  0.03527256  0.10910968  0.67269573    -0.07290
N192        N  0.41353075  0.02561373  0.79244441    -0.26040
H193        H  0.38422591  0.07102091  0.66515352     0.06540
N194        N  0.02631163  0.39211781  0.67280787    -0.47260
H195        H  0.06721408  0.11493645  0.66607061     0.06530
C196        C  0.50050219  0.12366656  0.84284010     0.42230
C197        C  0.10293456  0.46171240  0.67242130    -0.06790
Co198      Co  0.05237557  0.05162023  0.74698089     0.73820
N199        N  0.46596043  0.11148606  0.67403588    -0.46980
C200        C  0.49471007  0.37611443  0.84146416     0.42490
N201        N  0.10614737  0.03252019  0.82103627    -0.46970
Co202      Co  0.44639458  0.05677222  0.74762068     0.73890
C203        C  0.39043115  0.04064729  0.82276124    -0.07300
C204        C  0.45700999  0.39559631  0.67245287    -0.06860
N205        N  0.08038465  0.47723517  0.79202542    -0.26390
N206        N  0.38703833  0.46985092  0.67429996    -0.47150
H207        H  0.42622943  0.38755082  0.82920988     0.06500
C208        C  0.03644014  0.10686473  0.82266289    -0.07270
Cl209      Cl  0.99670014  0.00119152  0.74758716    -0.50270
C210        C  0.99873782  0.12638033  0.65378973     0.42260
H211        H  0.10886392  0.43135180  0.83024655     0.06470
N212        N  0.46713768  0.11032501  0.82234518    -0.46990
C213        C  0.99672880  0.15861479  0.62268131     0.42110
N214        N  0.01422815  0.20837560  0.58384988     0.01000
C215        C  0.38874691  0.32365946  0.95789258    -0.06880
H216        H  0.38505674  0.16634942  0.92901403     0.06490
C217        C  0.03638575  0.17503442  0.89209529    -0.07230
Co218      Co  0.44146325  0.25117260  0.54831756     0.74180
N219        N  0.41387746  0.20461279  0.97469983    -0.26410
Co220      Co  0.44595982  0.24919404  0.94231301     0.74070
C221        C  0.00048371  0.15475241  0.87512376     0.42210
N222        N  0.08311868  0.20774082  0.98171936     0.00610
N223        N  0.48085295  0.20450690  0.91289667     0.00720
N224        N  0.38584210  0.32408071  0.52722399    -0.47260
H225        H  0.42811863  0.16987140  0.61126352     0.06480
N226        N  0.41218275  0.20515588  0.51509697     0.01000
N227        N  0.47922380  0.29409272  0.91133731     0.00740
C228        C  0.49672386  0.34390376  0.87258062     0.42350
N229        N  0.08112641  0.20870686  0.52209440    -0.25870
C230        C  0.45708007  0.32747611  0.60299734    -0.06790
N231        N  0.02926065  0.17949403  0.60805956    -0.46970
N232        N  0.46419170  0.32301003  0.88717477    -0.47190
C233        C  0.49298452  0.34775372  0.61996878     0.42120
N234        N  0.41029778  0.29472309  0.51342301     0.00990
N235        N  0.07948834  0.29787207  0.52044595    -0.25890
N236        N  0.47383048  0.20781448  0.58211427    -0.26380
N237        N  0.08118476  0.29731990  0.98005223     0.00630
H238        H  0.10805598  0.33634909  0.56611008     0.06520
H239        H  0.06533475  0.33263340  0.88397140     0.06560
N240        N  0.41229155  0.29374667  0.97304804    -0.26430
N241        N  0.02122525  0.20550484  0.91491982    -0.26040
N242        N  0.01260123  0.29795271  0.58225423     0.01000
C243        C  0.37414306  0.15474896  0.49764831     0.42390
C244        C  0.10458527  0.17872033  0.53723472    -0.07290
N245        N  0.01961955  0.29464962  0.91306389    -0.26040
H246        H  0.06851466  0.16899715  0.88678001     0.06540
N247        N  0.38838284  0.17593817  0.53014806    -0.47260
H248        H  0.10974414  0.17252067  0.56935962     0.06530
C249        C  0.11893288  0.34793750  0.99747061     0.42230
C250        C  0.45994765  0.17733214  0.60583837    -0.06790
Co251      Co  0.04747661  0.25326624  0.55284457     0.73820
N252        N  0.10748353  0.17831756  0.96790217    -0.46980
C253        C  0.37151037  0.34369237  0.99379554     0.42490
N254        N  0.02640130  0.32774439  0.60621000    -0.46970
Co255      Co  0.05196903  0.25129261  0.94683444     0.73890
C256        C  0.03350619  0.32516193  0.88938358    -0.07300
C257        C  0.39071541  0.17366098  0.96084298    -0.06860
N258        N  0.47223021  0.29697194  0.58021264    -0.26390
N259        N  0.46706139  0.17472948  0.88891863    -0.47150
H260        H  0.38354410  0.32980530  0.92576424     0.06500
C261        C  0.10247503  0.32895665  0.53428619    -0.07270
Cl262      Cl  0.99671489  0.25122438  0.99757843    -0.50270
C263        C  0.12175509  0.15865127  0.00132071     0.42260
H264        H  0.42495228  0.33353970  0.60828976     0.06470
N265        N  0.10481646  0.32665829  0.96498257    -0.46990
C266        C  0.34042362  0.37604492  0.99384630     0.42110
N267        N  0.29182474  0.41541957  0.51337699     0.01000
C268        C  0.17080831  0.03908661  0.89067439    -0.06880
H269        H  0.32777915  0.07277054  0.88627143     0.06490
C270        C  0.32210981  0.10751724  0.53616042    -0.07230
Co271      Co  0.24671350  0.45075250  0.94190208     0.74180
N272        N  0.29076346  0.02563675  0.91410651    -0.26410
Co273      Co  0.24607909  0.05677054  0.94721560     0.74070
C274        C  0.34178120  0.12383425  0.49961673     0.42210
N275        N  0.29142511  0.01768285  0.58299930     0.00610
N276        N  0.29101678  0.08662345  0.98142602     0.00720
N277        N  0.17267094  0.46977251  0.88816899    -0.47260
H278        H  0.32713184  0.38847123  0.92581118     0.06480
N279        N  0.29134147  0.48526196  0.91185512     0.01000
N280        N  0.20139880  0.08691675  0.98172021     0.00740
C281        C  0.15275242  0.12622347  0.00125208     0.42350
N282        N  0.29171118  0.47727924  0.58108349    -0.25870
C283        C  0.17098894  0.39507375  0.95894664    -0.06790
N284        N  0.32064402  0.39037696  0.52723193    -0.46970
N285        N  0.17255904  0.11193392  0.96786596    -0.47190
C286        C  0.15125668  0.37886180  0.99549705     0.42120
N287        N  0.20180175  0.48468377  0.91215476     0.00990
N288        N  0.20247392  0.47672299  0.58097793    -0.25890
N289        N  0.29130112  0.41766390  0.97300518    -0.26380
N290        N  0.20189458  0.01709497  0.58322565     0.00630
H291        H  0.16546549  0.42958592  0.60881680     0.06520
H292        H  0.16603069  0.11377910  0.56928380     0.06560
N293        N  0.20150488  0.02508240  0.91408717    -0.26430
N294        N  0.29104453  0.08474270  0.52181065    -0.26040
N295        N  0.20219614  0.41582052  0.51366902     0.01000
C296        C  0.34111327  0.50470338  0.87397965     0.42390
C297        C  0.32229215  0.46327040  0.60465170    -0.07290
N298        N  0.20191211  0.08465556  0.52208891    -0.26040
H299        H  0.32942696  0.11256942  0.56808652     0.06540
N300        N  0.32089707  0.47134338  0.88771174    -0.47260
H301        H  0.32944686  0.43140609  0.61019195     0.06530
C302        C  0.15212727  0.99765252  0.62109794     0.42230
C303        C  0.32105307  0.39387119  0.95792996    -0.06790
Co304      Co  0.24715613  0.44560055  0.54788825     0.73820
N305        N  0.32045327  0.03258784  0.60711866    -0.46980
C306        C  0.15177141  0.00228873  0.87385642     0.42490
N307        N  0.17228518  0.39264848  0.52826093    -0.46970
Co308      Co  0.24651965  0.05161243  0.55319729     0.73890
C309        C  0.17212388  0.10839815  0.53716455    -0.07300
C310        C  0.32123674  0.04066261  0.89119091    -0.06860
N311        N  0.20216340  0.41769792  0.97328752    -0.26390
N312        N  0.32082415  0.10994309  0.96684492    -0.47150
H313        H  0.16358597  0.07094890  0.88521108     0.06500
C314        C  0.17200049  0.46169393  0.60388882    -0.07270
Cl315      Cl  0.24663181  0.00118470  0.99755164    -0.50270
C316        C  0.34127382  0.50006821  0.62154956     0.42260
H317        H  0.16361517  0.39007972  0.92702478     0.06470
N318        N  0.17234037  0.03101240  0.60736769    -0.46990
C319        C  0.12027855  0.49766669  0.15264432     0.42110
N320        N  0.08214662  0.51713027  0.20219279     0.01000
C321        C  0.45816786  0.89334741  0.32254381    -0.06880
H322        H  0.42491373  0.89096019  0.16565120     0.06490
C323        C  0.38956327  0.53915806  0.17246730    -0.07230
Co324      Co  0.04701173  0.94560686  0.24757323     0.74180
N325        N  0.47204177  0.91791105  0.20339289    -0.26410
Co326      Co  0.44103213  0.95075798  0.24820763     0.74070
C327        C  0.37275150  0.50237417  0.15338876     0.42210
N328        N  0.48050937  0.58676950  0.20268680     0.00610
N329        N  0.41097842  0.98474132  0.20348877     0.00720
N330        N  0.02747878  0.89096187  0.32117800    -0.47260
H331        H  0.10798627  0.92959794  0.16601979     0.06480
N332        N  0.01240043  0.91564954  0.20286084     0.01000
N333        N  0.41126020  0.98523541  0.29300919     0.00740
C334        C  0.37304092  0.00468986  0.34250075     0.42350
N335        N  0.02090657  0.58494508  0.20264943    -0.25870
C336        C  0.10360102  0.96321314  0.32287295    -0.06790
N337        N  0.10647651  0.53103611  0.17278974    -0.46970
N338        N  0.38687642  0.97132542  0.32236778    -0.47190
C339        C  0.12031549  0.99999626  0.34202160     0.42120
N340        N  0.01291389  0.91562086  0.29248857     0.00990
N341        N  0.02138953  0.58449468  0.29177104    -0.25890
N342        N  0.07988158  0.97675363  0.20276751    -0.26380
N343        N  0.48103168  0.58674669  0.29232023     0.00630
H344        H  0.06854023  0.61152734  0.32942820     0.06520
H345        H  0.38534996  0.57276089  0.32914387     0.06560
N346        N  0.47252011  0.91745109  0.29253776    -0.26430
N347        N  0.41294218  0.52513708  0.20319831    -0.26040
N348        N  0.08235524  0.51762819  0.29173255     0.01000
C349        C  0.99295819  0.87881836  0.15227071     0.42390
C350        C  0.03527256  0.60910967  0.17269572    -0.07290
N351        N  0.41353074  0.52561373  0.29244441    -0.26040
H352        H  0.38422591  0.57102090  0.16515351     0.06540
N353        N  0.02631163  0.89211781  0.17280788    -0.47260
H354        H  0.06721408  0.61493644  0.16607060     0.06530
C355        C  0.50050219  0.62366658  0.34284008     0.42230
C356        C  0.10293456  0.96171239  0.17242130    -0.06790
Co357      Co  0.05237557  0.55162023  0.24698088     0.73820
N358        N  0.46596043  0.61148605  0.17403586    -0.46980
C359        C  0.49471007  0.87611445  0.34146418     0.42490
N360        N  0.10614738  0.53252020  0.32103627    -0.46970
Co361      Co  0.44639458  0.55677222  0.24762067     0.73890
C362        C  0.39043115  0.54064730  0.32276123    -0.07300
C363        C  0.45700999  0.89559630  0.17245288    -0.06860
N364        N  0.08038465  0.97723517  0.29202542    -0.26390
N365        N  0.38703833  0.96985091  0.17429996    -0.47150
H366        H  0.42622943  0.88755084  0.32920990     0.06500
C367        C  0.03644014  0.60686474  0.32266287    -0.07270
Cl368      Cl  0.99670014  0.50119152  0.24758716    -0.50270
C369        C  0.99873782  0.62638032  0.15378972     0.42260
H370        H  0.10886391  0.93135181  0.33024656     0.06470
N371        N  0.46713768  0.61032503  0.32234516    -0.46990
C372        C  0.99672880  0.65861479  0.12268130     0.42110
N373        N  0.01422816  0.70837560  0.08384988     0.01000
C374        C  0.38874691  0.82365947  0.45789259    -0.06880
H375        H  0.38505674  0.66634943  0.42901404     0.06490
C376        C  0.03638575  0.67503444  0.39209528    -0.07230
Co377      Co  0.44146325  0.75117260  0.04831756     0.74180
N378        N  0.41387746  0.70461280  0.47469983    -0.26410
Co379      Co  0.44595982  0.74919405  0.44231302     0.74070
C380        C  0.00048371  0.65475243  0.37512374     0.42210
N381        N  0.08311867  0.70774083  0.48171937     0.00610
N382        N  0.48085295  0.70450691  0.41289667     0.00720
N383        N  0.38584210  0.82408071  0.02722398    -0.47260
H384        H  0.42811863  0.66987139  0.11126351     0.06480
N385        N  0.41218275  0.70515587  0.01509697     0.01000
N386        N  0.47922380  0.79409273  0.41133732     0.00740
C387        C  0.49672386  0.84390378  0.37258064     0.42350
N388        N  0.08112641  0.70870686  0.02209440    -0.25870
C389        C  0.45708007  0.82747611  0.10299734    -0.06790
N390        N  0.02926066  0.67949402  0.10805955    -0.46970
N391        N  0.46419170  0.82301005  0.38717479    -0.47190
C392        C  0.49298452  0.84775371  0.11996878     0.42120
N393        N  0.41029778  0.79472308  0.01342300     0.00990
N394        N  0.07948834  0.79787207  0.02044594    -0.25890
N395        N  0.47383048  0.70781448  0.08211426    -0.26380
N396        N  0.08118476  0.79731990  0.48005224     0.00630
H397        H  0.10805598  0.83634909  0.06611007     0.06520
H398        H  0.06533475  0.83263342  0.38397142     0.06560
N399        N  0.41229155  0.79374668  0.47304804    -0.26430
N400        N  0.02122525  0.70550485  0.41491981    -0.26040
N401        N  0.01260123  0.79795271  0.08225423     0.01000
C402        C  0.37414306  0.65474895  0.99764831     0.42390
C403        C  0.10458528  0.67872033  0.03723472    -0.07290
N404        N  0.01961955  0.79464964  0.41306390    -0.26040
H405        H  0.06851466  0.66899717  0.38677999     0.06540
N406        N  0.38838284  0.67593816  0.03014807    -0.47260
H407        H  0.10974415  0.67252067  0.06935961     0.06530
C408        C  0.11893288  0.84793750  0.49747063     0.42230
C409        C  0.45994765  0.67733214  0.10583836    -0.06790
Co410      Co  0.04747661  0.75326624  0.05284457     0.73820
N411        N  0.10748353  0.67831757  0.46790217    -0.46980
C412        C  0.37151037  0.84369237  0.49379555     0.42490
N413        N  0.02640130  0.82774438  0.10621000    -0.46970
Co414      Co  0.05196903  0.75129262  0.44683444     0.73890
C415        C  0.03350619  0.82516195  0.38938359    -0.07300
C416        C  0.39071542  0.67366099  0.46084298    -0.06860
N417        N  0.47223021  0.79697194  0.08021264    -0.26390
N418        N  0.46706139  0.67472950  0.38891862    -0.47150
H419        H  0.38354411  0.82980531  0.42576424     0.06500
C420        C  0.10247502  0.82895665  0.03428618    -0.07270
Cl421      Cl  0.99671488  0.75122439  0.49757843    -0.50270
C422        C  0.12175508  0.65865127  0.50132071     0.42260
H423        H  0.42495228  0.83353970  0.10828976     0.06470
N424        N  0.10481647  0.82665830  0.46498259    -0.46990
C425        C  0.34042362  0.87604493  0.49384631     0.42110
N426        N  0.29182474  0.91541955  0.01337698     0.01000
C427        C  0.17080832  0.53908662  0.39067439    -0.06880
H428        H  0.32777915  0.57277055  0.38627143     0.06490
C429        C  0.32210981  0.60751723  0.03616042    -0.07230
Co430      Co  0.24671349  0.95075251  0.44190209     0.74180
N431        N  0.29076346  0.52563676  0.41410652    -0.26410
Co432      Co  0.24607909  0.55677055  0.44721560     0.74070
C433        C  0.34178121  0.62383424  0.99961673     0.42210
N434        N  0.29142511  0.51768283  0.08299929     0.00610
N435        N  0.29101678  0.58662346  0.48142603     0.00720
N436        N  0.17267093  0.96977251  0.38816900    -0.47260
H437        H  0.32713184  0.88847124  0.42581119     0.06480
N438        N  0.29134146  0.98526197  0.41185512     0.01000
N439        N  0.20139880  0.58691677  0.48172021     0.00740
C440        C  0.15275241  0.62622348  0.50125208     0.42350
N441        N  0.29171118  0.97727923  0.08108348    -0.25870
C442        C  0.17098894  0.89507376  0.45894665    -0.06790
N443        N  0.32064402  0.89037695  0.02723192    -0.46970
N444        N  0.17255904  0.61193393  0.46786596    -0.47190
C445        C  0.15125668  0.87886180  0.49549707     0.42120
N446        N  0.20180175  0.98468378  0.41215476     0.00990
N447        N  0.20247392  0.97672297  0.08097793    -0.25890
N448        N  0.29130112  0.91766391  0.47300518    -0.26380
N449        N  0.20189457  0.51709496  0.08322564     0.00630
H450        H  0.16546549  0.92958590  0.10881680     0.06520
H451        H  0.16603070  0.61377909  0.06928380     0.06560
N452        N  0.20150488  0.52508241  0.41408717    -0.26430
N453        N  0.29104453  0.58474268  0.02181065    -0.26040
N454        N  0.20219614  0.91582051  0.01366901     0.01000
C455        C  0.34111326  0.00470339  0.37397964     0.42390
C456        C  0.32229214  0.96327038  0.10465169    -0.07290
N457        N  0.20191212  0.58465555  0.02208890    -0.26040
H458        H  0.32942696  0.61256941  0.06808653     0.06540
N459        N  0.32089706  0.97134339  0.38771174    -0.47260
H460        H  0.32944686  0.93140607  0.11019195     0.06530
C461        C  0.15212727  0.49765251  0.12109793     0.42230
C462        C  0.32105307  0.89387120  0.45792997    -0.06790
Co463      Co  0.24715613  0.94560054  0.04788824     0.73820
N464        N  0.32045327  0.53258782  0.10711866    -0.46980
C465        C  0.15177142  0.50228874  0.37385642     0.42490
N466        N  0.17228517  0.89264847  0.02826092    -0.46970
Co467      Co  0.24651965  0.55161242  0.05319728     0.73890
C468        C  0.17212388  0.60839814  0.03716455    -0.07300
C469        C  0.32123674  0.54066262  0.39119091    -0.06860
N470        N  0.20216340  0.91769793  0.47328753    -0.26390
N471        N  0.32082415  0.60994310  0.46684492    -0.47150
H472        H  0.16358598  0.57094891  0.38521108     0.06500
C473        C  0.17200049  0.96169392  0.10388881    -0.07270
Cl474      Cl  0.24663181  0.50118472  0.49755165    -0.50270
C475        C  0.34127382  0.00006819  0.12154955     0.42260
H476        H  0.16361517  0.89007972  0.42702479     0.06470
N477        N  0.17234037  0.53101239  0.10736768    -0.46990
C478        C  0.12027855  0.49766670  0.65264433     0.42110
N479        N  0.08214662  0.51713027  0.70219280     0.01000
C480        C  0.45816786  0.89334740  0.82254380    -0.06880
H481        H  0.42491373  0.89096020  0.66565119     0.06490
C482        C  0.38956327  0.53915807  0.67246731    -0.07230
Co483      Co  0.04701173  0.94560686  0.74757323     0.74180
N484        N  0.47204177  0.91791106  0.70339288    -0.26410
Co485      Co  0.44103214  0.95075798  0.74820762     0.74070
C486        C  0.37275151  0.50237419  0.65338876     0.42210
N487        N  0.48050937  0.58676951  0.70268681     0.00610
N488        N  0.41097842  0.98474133  0.70348877     0.00720
N489        N  0.02747878  0.89096186  0.82117798    -0.47260
H490        H  0.10798627  0.92959795  0.66601978     0.06480
N491        N  0.01240043  0.91564954  0.70286083     0.01000
N492        N  0.41126021  0.98523540  0.79300919     0.00740
C493        C  0.37304092  0.00468985  0.84250076     0.42350
N494        N  0.02090656  0.58494508  0.70264944    -0.25870
C495        C  0.10360102  0.96321313  0.82287294    -0.06790
N496        N  0.10647651  0.53103612  0.67278975    -0.46970
N497        N  0.38687642  0.97132541  0.82236778    -0.47190
C498        C  0.12031549  0.99999625  0.84202159     0.42120
N499        N  0.01291389  0.91562085  0.79248856     0.00990
N500        N  0.02138953  0.58449467  0.79177105    -0.25890
N501        N  0.07988158  0.97675364  0.70276750    -0.26380
N502        N  0.48103168  0.58674669  0.79232025     0.00630
H503        H  0.06854023  0.61152732  0.82942822     0.06520
H504        H  0.38534997  0.57276088  0.82914388     0.06560
N505        N  0.47252011  0.91745108  0.79253775    -0.26430
N506        N  0.41294218  0.52513709  0.70319831    -0.26040
N507        N  0.08235523  0.51762819  0.79173255     0.01000
C508        C  0.99295819  0.87881837  0.65227070     0.42390
C509        C  0.03527256  0.60910968  0.67269574    -0.07290
N510        N  0.41353075  0.52561373  0.79244441    -0.26040
H511        H  0.38422592  0.57102091  0.66515352     0.06540
N512        N  0.02631162  0.89211781  0.67280787    -0.47260
H513        H  0.06721407  0.61493645  0.66607062     0.06530
C514        C  0.50050219  0.62366656  0.84284010     0.42230
C515        C  0.10293455  0.96171240  0.67242129    -0.06790
Co516      Co  0.05237557  0.55162023  0.74698089     0.73820
N517        N  0.46596043  0.61148606  0.67403588    -0.46980
C518        C  0.49471008  0.87611444  0.84146417     0.42490
N519        N  0.10614737  0.53252020  0.82103627    -0.46970
Co520      Co  0.44639458  0.55677222  0.74762068     0.73890
C521        C  0.39043116  0.54064729  0.82276124    -0.07300
C522        C  0.45700999  0.89559631  0.67245287    -0.06860
N523        N  0.08038465  0.97723517  0.79202541    -0.26390
N524        N  0.38703833  0.96985092  0.67429996    -0.47150
H525        H  0.42622943  0.88755083  0.82920989     0.06500
C526        C  0.03644014  0.60686473  0.82266289    -0.07270
Cl527      Cl  0.99670014  0.50119152  0.74758716    -0.50270
C528        C  0.99873782  0.62638033  0.65378973     0.42260
H529        H  0.10886392  0.93135180  0.83024655     0.06470
N530        N  0.46713769  0.61032501  0.82234518    -0.46990
C531        C  0.99672879  0.65861479  0.62268131     0.42110
N532        N  0.01422815  0.70837560  0.58384988     0.01000
C533        C  0.38874692  0.82365947  0.95789258    -0.06880
H534        H  0.38505674  0.66634942  0.92901404     0.06490
C535        C  0.03638575  0.67503443  0.89209529    -0.07230
Co536      Co  0.44146325  0.75117260  0.54831756     0.74180
N537        N  0.41387746  0.70461279  0.97469983    -0.26410
Co538      Co  0.44595983  0.74919405  0.94231301     0.74070
C539        C  0.00048371  0.65475241  0.87512376     0.42210
N540        N  0.08311868  0.70774082  0.98171937     0.00610
N541        N  0.48085295  0.70450690  0.91289667     0.00720
N542        N  0.38584209  0.82408071  0.52722399    -0.47260
H543        H  0.42811863  0.66987140  0.61126352     0.06480
N544        N  0.41218275  0.70515588  0.51509697     0.01000
N545        N  0.47922381  0.79409272  0.91133731     0.00740
C546        C  0.49672386  0.84390377  0.87258062     0.42350
N547        N  0.08112641  0.70870687  0.52209440    -0.25870
C548        C  0.45708007  0.82747611  0.60299734    -0.06790
N549        N  0.02926065  0.67949403  0.60805956    -0.46970
N550        N  0.46419170  0.82301004  0.88717477    -0.47190
C551        C  0.49298452  0.84775371  0.61996878     0.42120
N552        N  0.41029778  0.79472308  0.51342301     0.00990
N553        N  0.07948833  0.79787207  0.52044595    -0.25890
N554        N  0.47383048  0.70781448  0.58211427    -0.26380
N555        N  0.08118476  0.79731990  0.98005223     0.00630
H556        H  0.10805598  0.83634909  0.56611008     0.06520
H557        H  0.06533476  0.83263340  0.88397141     0.06560
N558        N  0.41229155  0.79374667  0.97304804    -0.26430
N559        N  0.02122525  0.70550484  0.91491982    -0.26040
N560        N  0.01260122  0.79795271  0.58225423     0.01000
C561        C  0.37414306  0.65474895  0.49764831     0.42390
C562        C  0.10458527  0.67872033  0.53723473    -0.07290
N563        N  0.01961956  0.79464963  0.91306389    -0.26040
H564        H  0.06851466  0.66899715  0.88678001     0.06540
N565        N  0.38838284  0.67593816  0.53014807    -0.47260
H566        H  0.10974414  0.67252067  0.56935962     0.06530
C567        C  0.11893288  0.84793750  0.99747061     0.42230
C568        C  0.45994765  0.67733214  0.60583837    -0.06790
Co569      Co  0.04747661  0.75326624  0.55284457     0.73820
N570        N  0.10748353  0.67831756  0.96790217    -0.46980
C571        C  0.37151037  0.84369237  0.99379554     0.42490
N572        N  0.02640129  0.82774439  0.60621000    -0.46970
Co573      Co  0.05196903  0.75129261  0.94683444     0.73890
C574        C  0.03350619  0.82516193  0.88938358    -0.07300
C575        C  0.39071542  0.67366099  0.96084298    -0.06860
N576        N  0.47223021  0.79697194  0.58021264    -0.26390
N577        N  0.46706140  0.67472949  0.88891863    -0.47150
H578        H  0.38354411  0.82980531  0.92576424     0.06500
C579        C  0.10247502  0.82895665  0.53428619    -0.07270
Cl580      Cl  0.99671489  0.75122439  0.99757843    -0.50270
C581        C  0.12175509  0.65865127  0.00132071     0.42260
H582        H  0.42495228  0.83353970  0.60828976     0.06470
N583        N  0.10481647  0.82665829  0.96498258    -0.46990
C584        C  0.34042363  0.87604492  0.99384630     0.42110
N585        N  0.29182474  0.91541956  0.51337698     0.01000
C586        C  0.17080831  0.53908661  0.89067439    -0.06880
H587        H  0.32777915  0.57277054  0.88627143     0.06490
C588        C  0.32210981  0.60751724  0.53616042    -0.07230
Co589      Co  0.24671350  0.95075250  0.94190208     0.74180
N590        N  0.29076346  0.52563675  0.91410652    -0.26410
Co591      Co  0.24607910  0.55677054  0.94721560     0.74070
C592        C  0.34178121  0.62383425  0.49961674     0.42210
N593        N  0.29142511  0.51768285  0.58299930     0.00610
N594        N  0.29101678  0.58662345  0.98142602     0.00720
N595        N  0.17267094  0.96977250  0.88816899    -0.47260
H596        H  0.32713184  0.88847124  0.92581118     0.06480
N597        N  0.29134147  0.98526196  0.91185511     0.01000
N598        N  0.20139880  0.58691676  0.98172021     0.00740
C599        C  0.15275242  0.62622348  0.00125208     0.42350
N600        N  0.29171118  0.97727924  0.58108349    -0.25870
C601        C  0.17098894  0.89507376  0.95894664    -0.06790
N602        N  0.32064401  0.89037696  0.52723193    -0.46970
N603        N  0.17255905  0.61193392  0.96786596    -0.47190
C604        C  0.15125668  0.87886180  0.99549706     0.42120
N605        N  0.20180175  0.98468377  0.91215476     0.00990
N606        N  0.20247392  0.97672299  0.58097793    -0.25890
N607        N  0.29130112  0.91766391  0.97300518    -0.26380
N608        N  0.20189458  0.51709498  0.58322565     0.00630
H609        H  0.16546549  0.92958592  0.60881680     0.06520
H610        H  0.16603069  0.61377910  0.56928380     0.06560
N611        N  0.20150488  0.52508240  0.91408717    -0.26430
N612        N  0.29104453  0.58474270  0.52181066    -0.26040
N613        N  0.20219614  0.91582052  0.51366902     0.01000
C614        C  0.34111327  0.00470338  0.87397965     0.42390
C615        C  0.32229214  0.96327040  0.60465169    -0.07290
N616        N  0.20191211  0.58465556  0.52208891    -0.26040
H617        H  0.32942696  0.61256942  0.56808653     0.06540
N618        N  0.32089706  0.97134338  0.88771173    -0.47260
H619        H  0.32944686  0.93140609  0.61019195     0.06530
C620        C  0.15212727  0.49765252  0.62109794     0.42230
C621        C  0.32105307  0.89387119  0.95792996    -0.06790
Co622      Co  0.24715613  0.94560055  0.54788825     0.73820
N623        N  0.32045327  0.53258784  0.60711866    -0.46980
C624        C  0.15177141  0.50228874  0.87385642     0.42490
N625        N  0.17228517  0.89264848  0.52826093    -0.46970
Co626      Co  0.24651965  0.55161243  0.55319729     0.73890
C627        C  0.17212388  0.60839815  0.53716455    -0.07300
C628        C  0.32123675  0.54066261  0.89119091    -0.06860
N629        N  0.20216340  0.91769792  0.97328752    -0.26390
N630        N  0.32082416  0.60994309  0.96684492    -0.47150
H631        H  0.16358598  0.57094890  0.88521108     0.06500
C632        C  0.17200048  0.96169393  0.60388881    -0.07270
Cl633      Cl  0.24663181  0.50118470  0.99755164    -0.50270
C634        C  0.34127382  0.00006821  0.62154956     0.42260
H635        H  0.16361517  0.89007972  0.92702478     0.06470
N636        N  0.17234037  0.53101240  0.60736769    -0.46990
C637        C  0.62027855  0.99766669  0.15264433     0.42110
N638        N  0.58214662  0.01713027  0.20219279     0.01000
C639        C  0.95816787  0.39334741  0.32254381    -0.06880
H640        H  0.92491373  0.39096018  0.16565120     0.06490
C641        C  0.88956328  0.03915806  0.17246730    -0.07230
Co642      Co  0.54701173  0.44560686  0.24757323     0.74180
N643        N  0.97204177  0.41791105  0.20339289    -0.26410
Co644      Co  0.94103214  0.45075798  0.24820763     0.74070
C645        C  0.87275151  0.00237418  0.15338875     0.42210
N646        N  0.98050937  0.08676950  0.20268680     0.00610
N647        N  0.91097842  0.48474132  0.20348877     0.00720
N648        N  0.52747879  0.39096188  0.32117800    -0.47260
H649        H  0.60798626  0.42959794  0.16601978     0.06480
N650        N  0.51240043  0.41564954  0.20286084     0.01000
N651        N  0.91126021  0.48523541  0.29300919     0.00740
C652        C  0.87304093  0.50468986  0.34250076     0.42350
N653        N  0.52090657  0.08494507  0.20264943    -0.25870
C654        C  0.60360103  0.46321314  0.32287294    -0.06790
N655        N  0.60647651  0.03103611  0.17278975    -0.46970
N656        N  0.88687642  0.47132542  0.32236778    -0.47190
C657        C  0.62031550  0.49999626  0.34202159     0.42120
N658        N  0.51291389  0.41562086  0.29248857     0.00990
N659        N  0.52138953  0.08449468  0.29177104    -0.25890
N660        N  0.57988158  0.47675363  0.20276750    -0.26380
N661        N  0.98103168  0.08674669  0.29232024     0.00630
H662        H  0.56854023  0.11152734  0.32942820     0.06520
H663        H  0.88534995  0.07276089  0.32914387     0.06560
N664        N  0.97252012  0.41745109  0.29253776    -0.26430
N665        N  0.91294218  0.02513708  0.20319831    -0.26040
N666        N  0.58235523  0.01762819  0.29173255     0.01000
C667        C  0.49295818  0.37881836  0.15227071     0.42390
C668        C  0.53527256  0.10910966  0.17269572    -0.07290
N669        N  0.91353074  0.02561374  0.29244441    -0.26040
H670        H  0.88422592  0.07102090  0.16515351     0.06540
N671        N  0.52631162  0.39211780  0.17280788    -0.47260
H672        H  0.56721408  0.11493644  0.16607060     0.06530
C673        C  0.00050219  0.12366658  0.34284008     0.42230
C674        C  0.60293455  0.46171239  0.17242129    -0.06790
Co675      Co  0.55237557  0.05162023  0.24698089     0.73820
N676        N  0.96596043  0.11148605  0.17403586    -0.46980
C677        C  0.99471008  0.37611446  0.34146418     0.42490
N678        N  0.60614737  0.03252020  0.32103627    -0.46970
Co679      Co  0.94639458  0.05677222  0.24762067     0.73890
C680        C  0.89043115  0.04064730  0.32276123    -0.07300
C681        C  0.95700999  0.39559629  0.17245288    -0.06860
N682        N  0.58038465  0.47723517  0.29202541    -0.26390
N683        N  0.88703833  0.46985091  0.17429996    -0.47150
H684        H  0.92622944  0.38755084  0.32920990     0.06500
C685        C  0.53644014  0.10686474  0.32266287    -0.07270
Cl686      Cl  0.49670014  0.00119152  0.24758716    -0.50270
C687        C  0.49873782  0.12638032  0.15378972     0.42260
H688        H  0.60886392  0.43135181  0.33024654     0.06470
N689        N  0.96713768  0.11032503  0.32234516    -0.46990
C690        C  0.49672880  0.15861478  0.12268130     0.42110
N691        N  0.51422815  0.20837560  0.08384988     0.01000
C692        C  0.88874692  0.32365948  0.45789258    -0.06880
H693        H  0.88505674  0.16634944  0.42901403     0.06490
C694        C  0.53638575  0.17503445  0.39209527    -0.07230
Co695      Co  0.94146325  0.25117259  0.04831756     0.74180
N696        N  0.91387746  0.20461280  0.47469983    -0.26410
Co697      Co  0.94595983  0.24919406  0.44231301     0.74070
C698        C  0.50048371  0.15475243  0.37512374     0.42210
N699        N  0.58311868  0.20774083  0.48171937     0.00610
N700        N  0.98085295  0.20450691  0.41289667     0.00720
N701        N  0.88584209  0.32408070  0.02722399    -0.47260
H702        H  0.92811864  0.16987139  0.11126351     0.06480
N703        N  0.91218275  0.20515587  0.01509697     0.01000
N704        N  0.97922381  0.29409274  0.41133732     0.00740
C705        C  0.99672387  0.34390379  0.37258064     0.42350
N706        N  0.58112641  0.20870686  0.02209440    -0.25870
C707        C  0.95708007  0.32747610  0.10299734    -0.06790
N708        N  0.52926066  0.17949402  0.10805955    -0.46970
N709        N  0.96419171  0.32301005  0.38717479    -0.47190
C710        C  0.99298452  0.34775370  0.11996879     0.42120
N711        N  0.91029778  0.29472307  0.01342301     0.00990
N712        N  0.57948833  0.29787207  0.02044594    -0.25890
N713        N  0.97383049  0.20781447  0.08211426    -0.26380
N714        N  0.58118476  0.29731990  0.48005224     0.00630
H715        H  0.60805597  0.33634909  0.06611007     0.06520
H716        H  0.56533476  0.33263342  0.38397142     0.06560
N717        N  0.91229155  0.29374668  0.47304804    -0.26430
N718        N  0.52122525  0.20550486  0.41491981    -0.26040
N719        N  0.51260122  0.29795271  0.08225423     0.01000
C720        C  0.87414306  0.15474894  0.99764831     0.42390
C721        C  0.60458527  0.17872032  0.03723472    -0.07290
N722        N  0.51961956  0.29464964  0.41306390    -0.26040
H723        H  0.56851466  0.16899717  0.38677999     0.06540
N724        N  0.88838284  0.17593816  0.03014807    -0.47260
H725        H  0.60974414  0.17252067  0.06935962     0.06530
C726        C  0.61893289  0.34793750  0.49747062     0.42230
C727        C  0.95994765  0.17733213  0.10583836    -0.06790
Co728      Co  0.54747661  0.25326624  0.05284457     0.73820
N729        N  0.60748353  0.17831757  0.46790217    -0.46980
C730        C  0.87151037  0.34369238  0.49379555     0.42490
N731        N  0.52640129  0.32774438  0.10621000    -0.46970
Co732      Co  0.55196903  0.25129262  0.44683444     0.73890
C733        C  0.53350620  0.32516195  0.38938359    -0.07300
C734        C  0.89071541  0.17366100  0.46084298    -0.06860
N735        N  0.97223021  0.29697194  0.08021264    -0.26390
N736        N  0.96706140  0.17472951  0.38891862    -0.47150
H737        H  0.88354411  0.32980532  0.42576424     0.06500
C738        C  0.60247502  0.32895665  0.03428618    -0.07270
Cl739      Cl  0.49671489  0.25122439  0.49757843    -0.50270
C740        C  0.62175508  0.15865127  0.50132071     0.42260
H741        H  0.92495228  0.33353969  0.10828977     0.06470
N742        N  0.60481647  0.32665830  0.46498259    -0.46990
C743        C  0.84042363  0.37604494  0.49384631     0.42110
N744        N  0.79182473  0.41541955  0.01337698     0.01000
C745        C  0.67080831  0.03908662  0.39067440    -0.06880
H746        H  0.82777914  0.07277055  0.38627142     0.06490
C747        C  0.82210981  0.10751723  0.03616042    -0.07230
Co748      Co  0.74671350  0.45075251  0.44190209     0.74180
N749        N  0.79076345  0.02563676  0.41410651    -0.26410
Co750      Co  0.74607909  0.05677055  0.44721560     0.74070
C751        C  0.84178120  0.12383424  0.99961674     0.42210
N752        N  0.79142511  0.01768284  0.08299929     0.00610
N753        N  0.79101677  0.08662347  0.48142602     0.00720
N754        N  0.67267094  0.46977251  0.38816899    -0.47260
H755        H  0.82713184  0.38847125  0.42581119     0.06480
N756        N  0.79134147  0.48526197  0.41185512     0.01000
N757        N  0.70139880  0.08691676  0.48172021     0.00740
C758        C  0.65275241  0.12622348  0.50125208     0.42350
N759        N  0.79171117  0.47727922  0.08108349    -0.25870
C760        C  0.67098894  0.39507376  0.45894665    -0.06790
N761        N  0.82064401  0.39037694  0.02723192    -0.46970
N762        N  0.67255904  0.11193393  0.46786596    -0.47190
C763        C  0.65125668  0.37886180  0.49549706     0.42120
N764        N  0.70180175  0.48468378  0.41215476     0.00990
N765        N  0.70247392  0.47672298  0.08097793    -0.25890
N766        N  0.79130112  0.41766392  0.47300518    -0.26380
N767        N  0.70189457  0.01709496  0.08322565     0.00630
H768        H  0.66546548  0.42958591  0.10881679     0.06520
H769        H  0.66603070  0.11377909  0.06928380     0.06560
N770        N  0.70150487  0.02508241  0.41408717    -0.26430
N771        N  0.79104453  0.08474268  0.02181065    -0.26040
N772        N  0.70219613  0.41582051  0.01366901     0.01000
C773        C  0.84111327  0.50470339  0.37397964     0.42390
C774        C  0.82229214  0.46327038  0.10465170    -0.07290
N775        N  0.70191211  0.08465555  0.02208891    -0.26040
H776        H  0.82942696  0.11256941  0.06808653     0.06540
N777        N  0.82089707  0.47134339  0.38771174    -0.47260
H778        H  0.82944686  0.43140607  0.11019195     0.06530
C779        C  0.65212727  0.99765251  0.12109794     0.42230
C780        C  0.82105307  0.39387120  0.45792997    -0.06790
Co781      Co  0.74715612  0.44560054  0.04788824     0.73820
N782        N  0.82045327  0.03258782  0.10711866    -0.46980
C783        C  0.65177141  0.00228874  0.37385643     0.42490
N784        N  0.67228517  0.39264847  0.02826092    -0.46970
Co785      Co  0.74651965  0.05161242  0.05319729     0.73890
C786        C  0.67212388  0.10839814  0.03716455    -0.07300
C787        C  0.82123674  0.04066262  0.39119090    -0.06860
N788        N  0.70216340  0.41769793  0.47328752    -0.26390
N789        N  0.82082415  0.10994310  0.46684491    -0.47150
H790        H  0.66358597  0.07094891  0.38521109     0.06500
C791        C  0.67200048  0.46169392  0.10388880    -0.07270
Cl792      Cl  0.74663181  0.00118472  0.49755164    -0.50270
C793        C  0.84127381  0.50006819  0.12154956     0.42260
H794        H  0.66361518  0.39007972  0.42702479     0.06470
N795        N  0.67234037  0.03101238  0.10736768    -0.46990
C796        C  0.62027855  0.99766670  0.65264432     0.42110
N797        N  0.58214662  0.01713027  0.70219279     0.01000
C798        C  0.95816786  0.39334740  0.82254380    -0.06880
H799        H  0.92491373  0.39096020  0.66565119     0.06490
C800        C  0.88956327  0.03915807  0.67246731    -0.07230
Co801      Co  0.54701174  0.44560686  0.74757323     0.74180
N802        N  0.97204177  0.41791106  0.70339288    -0.26410
Co803      Co  0.94103213  0.45075798  0.74820762     0.74070
C804        C  0.87275151  0.00237419  0.65338876     0.42210
N805        N  0.98050937  0.08676951  0.70268681     0.00610
N806        N  0.91097842  0.48474133  0.70348877     0.00720
N807        N  0.52747878  0.39096186  0.82117798    -0.47260
H808        H  0.60798627  0.42959795  0.66601979     0.06480
N809        N  0.51240043  0.41564954  0.70286083     0.01000
N810        N  0.91126020  0.48523540  0.79300919     0.00740
C811        C  0.87304093  0.50468985  0.84250076     0.42350
N812        N  0.52090657  0.08494508  0.70264944    -0.25870
C813        C  0.60360102  0.46321314  0.82287294    -0.06790
N814        N  0.60647651  0.03103612  0.67278975    -0.46970
N815        N  0.88687642  0.47132541  0.82236778    -0.47190
C816        C  0.62031549  0.49999625  0.84202160     0.42120
N817        N  0.51291389  0.41562085  0.79248856     0.00990
N818        N  0.52138953  0.08449467  0.79177105    -0.25890
N819        N  0.57988158  0.47675364  0.70276750    -0.26380
N820        N  0.98103168  0.08674669  0.79232025     0.00630
H821        H  0.56854023  0.11152732  0.82942822     0.06520
H822        H  0.88534996  0.07276088  0.82914388     0.06560
N823        N  0.97252011  0.41745108  0.79253775    -0.26430
N824        N  0.91294218  0.02513709  0.70319831    -0.26040
N825        N  0.58235524  0.01762819  0.79173255     0.01000
C826        C  0.49295819  0.37881837  0.65227070     0.42390
C827        C  0.53527256  0.10910968  0.67269573    -0.07290
N828        N  0.91353074  0.02561373  0.79244441    -0.26040
H829        H  0.88422591  0.07102091  0.66515352     0.06540
N830        N  0.52631163  0.39211781  0.67280787    -0.47260
H831        H  0.56721408  0.11493645  0.66607061     0.06530
C832        C  0.00050219  0.12366656  0.84284010     0.42230
C833        C  0.60293456  0.46171240  0.67242130    -0.06790
Co834      Co  0.55237557  0.05162023  0.74698089     0.73820
N835        N  0.96596043  0.11148606  0.67403588    -0.46980
C836        C  0.99471007  0.37611443  0.84146416     0.42490
N837        N  0.60614738  0.03252019  0.82103627    -0.46970
Co838      Co  0.94639458  0.05677222  0.74762068     0.73890
C839        C  0.89043115  0.04064729  0.82276124    -0.07300
C840        C  0.95700999  0.39559631  0.67245287    -0.06860
N841        N  0.58038465  0.47723517  0.79202542    -0.26390
N842        N  0.88703833  0.46985092  0.67429996    -0.47150
H843        H  0.92622943  0.38755082  0.82920988     0.06500
C844        C  0.53644014  0.10686473  0.82266289    -0.07270
Cl845      Cl  0.49670014  0.00119152  0.74758716    -0.50270
C846        C  0.49873782  0.12638033  0.65378973     0.42260
H847        H  0.60886392  0.43135180  0.83024655     0.06470
N848        N  0.96713768  0.11032501  0.82234518    -0.46990
C849        C  0.49672880  0.15861479  0.62268131     0.42110
N850        N  0.51422815  0.20837560  0.58384988     0.01000
C851        C  0.88874691  0.32365946  0.95789258    -0.06880
H852        H  0.88505674  0.16634942  0.92901404     0.06490
C853        C  0.53638575  0.17503442  0.89209529    -0.07230
Co854      Co  0.94146325  0.25117260  0.54831756     0.74180
N855        N  0.91387746  0.20461279  0.97469983    -0.26410
Co856      Co  0.94595982  0.24919404  0.94231301     0.74070
C857        C  0.50048371  0.15475240  0.87512376     0.42210
N858        N  0.58311868  0.20774082  0.98171937     0.00610
N859        N  0.98085295  0.20450690  0.91289667     0.00720
N860        N  0.88584210  0.32408071  0.52722399    -0.47260
H861        H  0.92811863  0.16987140  0.61126352     0.06480
N862        N  0.91218275  0.20515588  0.51509697     0.01000
N863        N  0.97922380  0.29409272  0.91133731     0.00740
C864        C  0.99672386  0.34390376  0.87258062     0.42350
N865        N  0.58112641  0.20870687  0.52209440    -0.25870
C866        C  0.95708007  0.32747611  0.60299734    -0.06790
N867        N  0.52926066  0.17949403  0.60805956    -0.46970
N868        N  0.96419170  0.32301003  0.88717477    -0.47190
C869        C  0.99298452  0.34775371  0.61996878     0.42120
N870        N  0.91029778  0.29472309  0.51342301     0.00990
N871        N  0.57948834  0.29787207  0.52044595    -0.25890
N872        N  0.97383048  0.20781448  0.58211426    -0.26380
N873        N  0.58118476  0.29731989  0.98005223     0.00630
H874        H  0.60805598  0.33634909  0.56611008     0.06520
H875        H  0.56533475  0.33263340  0.88397141     0.06560
N876        N  0.91229155  0.29374667  0.97304804    -0.26430
N877        N  0.52122525  0.20550484  0.91491982    -0.26040
N878        N  0.51260123  0.29795272  0.58225423     0.01000
C879        C  0.87414306  0.15474896  0.49764831     0.42390
C880        C  0.60458527  0.17872033  0.53723472    -0.07290
N881        N  0.51961955  0.29464962  0.91306389    -0.26040
H882        H  0.56851466  0.16899715  0.88678001     0.06540
N883        N  0.88838284  0.17593817  0.53014806    -0.47260
H884        H  0.60974414  0.17252067  0.56935962     0.06530
C885        C  0.61893287  0.34793750  0.99747061     0.42230
C886        C  0.95994765  0.17733214  0.60583837    -0.06790
Co887      Co  0.54747661  0.25326625  0.55284457     0.73820
N888        N  0.60748353  0.17831756  0.96790217    -0.46980
C889        C  0.87151037  0.34369236  0.99379555     0.42490
N890        N  0.52640130  0.32774439  0.60621000    -0.46970
Co891      Co  0.55196903  0.25129261  0.94683444     0.73890
C892        C  0.53350619  0.32516193  0.88938357    -0.07300
C893        C  0.89071542  0.17366098  0.96084298    -0.06860
N894        N  0.97223021  0.29697194  0.58021264    -0.26390
N895        N  0.96706139  0.17472949  0.88891863    -0.47150
H896        H  0.88354410  0.32980530  0.92576424     0.06500
C897        C  0.60247503  0.32895665  0.53428619    -0.07270
Cl898      Cl  0.49671488  0.25122438  0.99757843    -0.50270
C899        C  0.62175509  0.15865127  0.00132071     0.42260
H900        H  0.92495228  0.33353970  0.60828976     0.06470
N901        N  0.60481646  0.32665829  0.96498258    -0.46990
C902        C  0.84042362  0.37604492  0.99384631     0.42110
N903        N  0.79182474  0.41541956  0.51337698     0.01000
C904        C  0.67080831  0.03908661  0.89067439    -0.06880
H905        H  0.82777915  0.07277054  0.88627143     0.06490
C906        C  0.82210980  0.10751724  0.53616041    -0.07230
Co907      Co  0.74671349  0.45075250  0.94190209     0.74180
N908        N  0.79076346  0.02563675  0.91410652    -0.26410
Co909      Co  0.74607909  0.05677054  0.94721560     0.74070
C910        C  0.84178120  0.12383425  0.49961673     0.42210
N911        N  0.79142511  0.01768285  0.58299929     0.00610
N912        N  0.79101678  0.08662345  0.98142603     0.00720
N913        N  0.67267094  0.46977250  0.88816899    -0.47260
H914        H  0.82713184  0.38847123  0.92581118     0.06480
N915        N  0.79134147  0.48526196  0.91185512     0.01000
N916        N  0.70139880  0.08691675  0.98172021     0.00740
C917        C  0.65275242  0.12622347  0.00125208     0.42350
N918        N  0.79171118  0.47727924  0.58108349    -0.25870
C919        C  0.67098894  0.39507375  0.95894664    -0.06790
N920        N  0.82064402  0.39037696  0.52723192    -0.46970
N921        N  0.67255904  0.11193392  0.96786596    -0.47190
C922        C  0.65125667  0.37886180  0.99549706     0.42120
N923        N  0.70180175  0.48468377  0.91215476     0.00990
N924        N  0.70247392  0.47672299  0.58097793    -0.25890
N925        N  0.79130111  0.41766390  0.97300518    -0.26380
N926        N  0.70189458  0.01709497  0.58322565     0.00630
H927        H  0.66546549  0.42958592  0.60881680     0.06520
H928        H  0.66603069  0.11377910  0.56928380     0.06560
N929        N  0.70150488  0.02508240  0.91408717    -0.26430
N930        N  0.79104453  0.08474270  0.52181065    -0.26040
N931        N  0.70219614  0.41582052  0.51366901     0.01000
C932        C  0.84111327  0.50470338  0.87397965     0.42390
C933        C  0.82229215  0.46327040  0.60465169    -0.07290
N934        N  0.70191211  0.08465556  0.52208890    -0.26040
H935        H  0.82942696  0.11256942  0.56808652     0.06540
N936        N  0.82089706  0.47134338  0.88771174    -0.47260
H937        H  0.82944686  0.43140609  0.61019195     0.06530
C938        C  0.65212727  0.99765252  0.62109794     0.42230
C939        C  0.82105307  0.39387118  0.95792997    -0.06790
Co940      Co  0.74715613  0.44560055  0.54788825     0.73820
N941        N  0.82045327  0.03258784  0.60711866    -0.46980
C942        C  0.65177141  0.00228873  0.87385643     0.42490
N943        N  0.67228518  0.39264848  0.52826093    -0.46970
Co944      Co  0.74651965  0.05161243  0.55319728     0.73890
C945        C  0.67212388  0.10839815  0.53716455    -0.07300
C946        C  0.82123674  0.04066261  0.89119091    -0.06860
N947        N  0.70216340  0.41769792  0.97328752    -0.26390
N948        N  0.82082415  0.10994309  0.96684492    -0.47150
H949        H  0.66358598  0.07094890  0.88521108     0.06500
C950        C  0.67200049  0.46169393  0.60388881    -0.07270
Cl951      Cl  0.74663181  0.00118471  0.99755164    -0.50270
C952        C  0.84127382  0.50006821  0.62154956     0.42260
H953        H  0.66361517  0.39007972  0.92702478     0.06470
N954        N  0.67234037  0.03101240  0.60736768    -0.46990
C955        C  0.62027854  0.49766669  0.15264431     0.42110
N956        N  0.58214662  0.51713027  0.20219279     0.01000
C957        C  0.95816786  0.89334741  0.32254381    -0.06880
H958        H  0.92491373  0.89096019  0.16565120     0.06490
C959        C  0.88956327  0.53915806  0.17246730    -0.07230
Co960      Co  0.54701173  0.94560686  0.24757323     0.74180
N961        N  0.97204177  0.91791105  0.20339289    -0.26410
Co962      Co  0.94103214  0.95075798  0.24820763     0.74070
C963        C  0.87275151  0.50237417  0.15338876     0.42210
N964        N  0.98050937  0.58676950  0.20268680     0.00610
N965        N  0.91097843  0.98474132  0.20348876     0.00720
N966        N  0.52747878  0.89096187  0.32117800    -0.47260
H967        H  0.60798627  0.92959794  0.16601979     0.06480
N968        N  0.51240043  0.91564954  0.20286084     0.01000
N969        N  0.91126020  0.98523541  0.29300919     0.00740
C970        C  0.87304092  0.00468986  0.34250075     0.42350
N971        N  0.52090656  0.58494508  0.20264943    -0.25870
C972        C  0.60360102  0.96321314  0.32287295    -0.06790
N973        N  0.60647651  0.53103611  0.17278974    -0.46970
N974        N  0.88687642  0.97132542  0.32236778    -0.47190
C975        C  0.62031549  0.99999626  0.34202160     0.42120
N976        N  0.51291389  0.91562086  0.29248857     0.00990
N977        N  0.52138953  0.58449468  0.29177104    -0.25890
N978        N  0.57988158  0.97675363  0.20276750    -0.26380
N979        N  0.98103168  0.58674669  0.29232023     0.00630
H980        H  0.56854023  0.61152734  0.32942820     0.06520
H981        H  0.88534996  0.57276089  0.32914387     0.06560
N982        N  0.97252011  0.91745109  0.29253776    -0.26430
N983        N  0.91294218  0.52513708  0.20319831    -0.26040
N984        N  0.58235524  0.51762819  0.29173254     0.01000
C985        C  0.49295819  0.87881836  0.15227070     0.42390
C986        C  0.53527256  0.60910967  0.17269572    -0.07290
N987        N  0.91353075  0.52561373  0.29244441    -0.26040
H988        H  0.88422591  0.57102090  0.16515351     0.06540
N989        N  0.52631163  0.89211781  0.17280788    -0.47260
H990        H  0.56721408  0.61493644  0.16607060     0.06530
C991        C  0.00050219  0.62366658  0.34284008     0.42230
C992        C  0.60293456  0.96171239  0.17242130    -0.06790
Co993      Co  0.55237557  0.55162023  0.24698088     0.73820
N994        N  0.96596043  0.61148605  0.17403586    -0.46980
C995        C  0.99471007  0.87611445  0.34146418     0.42490
N996        N  0.60614738  0.53252020  0.32103626    -0.46970
Co997      Co  0.94639458  0.55677222  0.24762067     0.73890
C998        C  0.89043115  0.54064730  0.32276123    -0.07300
C999        C  0.95700999  0.89559630  0.17245288    -0.06860
N1000       N  0.58038465  0.97723517  0.29202542    -0.26390
N1001       N  0.88703833  0.96985092  0.17429996    -0.47150
H1002       H  0.92622943  0.88755084  0.32920990     0.06500
C1003       C  0.53644014  0.60686474  0.32266287    -0.07270
Cl1004     Cl  0.49670014  0.50119152  0.24758716    -0.50270
C1005       C  0.49873782  0.62638032  0.15378972     0.42260
H1006       H  0.60886391  0.93135181  0.33024656     0.06470
N1007       N  0.96713768  0.61032503  0.32234516    -0.46990
C1008       C  0.49672880  0.65861479  0.12268130     0.42110
N1009       N  0.51422815  0.70837560  0.08384988     0.01000
C1010       C  0.88874691  0.82365947  0.45789258    -0.06880
H1011       H  0.88505674  0.66634943  0.42901404     0.06490
C1012       C  0.53638575  0.67503444  0.39209528    -0.07230
Co1013     Co  0.94146325  0.75117260  0.04831756     0.74180
N1014       N  0.91387746  0.70461280  0.47469983    -0.26410
Co1015     Co  0.94595982  0.74919405  0.44231302     0.74070
C1016       C  0.50048371  0.65475243  0.37512374     0.42210
N1017       N  0.58311867  0.70774083  0.48171937     0.00610
N1018       N  0.98085295  0.70450691  0.41289667     0.00720
N1019       N  0.88584210  0.82408071  0.02722399    -0.47260
H1020       H  0.92811863  0.66987139  0.11126351     0.06480
N1021       N  0.91218275  0.70515587  0.01509697     0.01000
N1022       N  0.97922380  0.79409273  0.41133732     0.00740
C1023       C  0.99672386  0.84390378  0.37258064     0.42350
N1024       N  0.58112641  0.70870686  0.02209440    -0.25870
C1025       C  0.95708007  0.82747611  0.10299734    -0.06790
N1026       N  0.52926066  0.67949402  0.10805955    -0.46970
N1027       N  0.96419170  0.82301005  0.38717479    -0.47190
C1028       C  0.99298452  0.84775371  0.11996878     0.42120
N1029       N  0.91029778  0.79472308  0.01342301     0.00990
N1030       N  0.57948834  0.79787207  0.02044594    -0.25890
N1031       N  0.97383049  0.70781448  0.08211426    -0.26380
N1032       N  0.58118476  0.79731990  0.48005224     0.00630
H1033       H  0.60805598  0.83634909  0.06611007     0.06520
H1034       H  0.56533475  0.83263342  0.38397142     0.06560
N1035       N  0.91229155  0.79374668  0.47304804    -0.26430
N1036       N  0.52122525  0.70550485  0.41491981    -0.26040
N1037       N  0.51260123  0.79795271  0.08225423     0.01000
C1038       C  0.87414306  0.65474895  0.99764831     0.42390
C1039       C  0.60458528  0.67872033  0.03723472    -0.07290
N1040       N  0.51961955  0.79464964  0.41306390    -0.26040
H1041       H  0.56851466  0.66899717  0.38677999     0.06540
N1042       N  0.88838284  0.67593816  0.03014807    -0.47260
H1043       H  0.60974415  0.67252067  0.06935962     0.06530
C1044       C  0.61893288  0.84793750  0.49747062     0.42230
C1045       C  0.95994765  0.67733214  0.10583836    -0.06790
Co1046     Co  0.54747661  0.75326624  0.05284457     0.73820
N1047       N  0.60748353  0.67831757  0.46790217    -0.46980
C1048       C  0.87151036  0.84369238  0.49379555     0.42490
N1049       N  0.52640130  0.82774438  0.10621000    -0.46970
Co1050     Co  0.55196903  0.75129262  0.44683444     0.73890
C1051       C  0.53350619  0.82516195  0.38938359    -0.07300
C1052       C  0.89071542  0.67366099  0.46084298    -0.06860
N1053       N  0.97223021  0.79697194  0.08021264    -0.26390
N1054       N  0.96706139  0.67472950  0.38891862    -0.47150
H1055       H  0.88354411  0.82980531  0.42576424     0.06500
C1056       C  0.60247502  0.82895665  0.03428618    -0.07270
Cl1057     Cl  0.49671488  0.75122439  0.49757843    -0.50270
C1058       C  0.62175508  0.65865127  0.50132071     0.42260
H1059       H  0.92495228  0.83353970  0.10828977     0.06470
N1060       N  0.60481647  0.82665830  0.46498258    -0.46990
C1061       C  0.84042362  0.87604493  0.49384631     0.42110
N1062       N  0.79182474  0.91541955  0.01337698     0.01000
C1063       C  0.67080832  0.53908662  0.39067439    -0.06880
H1064       H  0.82777915  0.57277055  0.38627143     0.06490
C1065       C  0.82210981  0.60751723  0.03616042    -0.07230
Co1066     Co  0.74671349  0.95075251  0.44190209     0.74180
N1067       N  0.79076346  0.52563676  0.41410652    -0.26410
Co1068     Co  0.74607909  0.55677055  0.44721560     0.74070
C1069       C  0.84178120  0.62383424  0.99961674     0.42210
N1070       N  0.79142511  0.51768283  0.08299930     0.00610
N1071       N  0.79101678  0.58662346  0.48142602     0.00720
N1072       N  0.67267093  0.96977251  0.38816899    -0.47260
H1073       H  0.82713184  0.88847124  0.42581118     0.06480
N1074       N  0.79134146  0.98526197  0.41185512     0.01000
N1075       N  0.70139880  0.58691676  0.48172021     0.00740
C1076       C  0.65275241  0.62622348  0.50125208     0.42350
N1077       N  0.79171118  0.97727923  0.08108349    -0.25870
C1078       C  0.67098894  0.89507376  0.45894665    -0.06790
N1079       N  0.82064402  0.89037695  0.02723192    -0.46970
N1080       N  0.67255904  0.61193393  0.46786596    -0.47190
C1081       C  0.65125668  0.87886180  0.49549706     0.42120
N1082       N  0.70180175  0.98468378  0.41215476     0.00990
N1083       N  0.70247392  0.97672298  0.08097793    -0.25890
N1084       N  0.79130112  0.91766392  0.47300518    -0.26380
N1085       N  0.70189457  0.51709496  0.08322564     0.00630
H1086       H  0.66546549  0.92958591  0.10881680     0.06520
H1087       H  0.66603070  0.61377909  0.06928380     0.06560
N1088       N  0.70150488  0.52508241  0.41408717    -0.26430
N1089       N  0.79104453  0.58474268  0.02181066    -0.26040
N1090       N  0.70219614  0.91582051  0.01366901     0.01000
C1091       C  0.84111326  0.00470340  0.37397964     0.42390
C1092       C  0.82229215  0.96327039  0.10465169    -0.07290
N1093       N  0.70191212  0.58465555  0.02208890    -0.26040
H1094       H  0.82942696  0.61256941  0.06808653     0.06540
N1095       N  0.82089706  0.97134339  0.38771173    -0.47260
H1096       H  0.82944686  0.93140608  0.11019195     0.06530
C1097       C  0.65212726  0.49765251  0.12109793     0.42230
C1098       C  0.82105307  0.89387120  0.45792997    -0.06790
Co1099     Co  0.74715613  0.94560054  0.04788824     0.73820
N1100       N  0.82045327  0.53258782  0.10711866    -0.46980
C1101       C  0.65177142  0.50228874  0.37385642     0.42490
N1102       N  0.67228517  0.89264847  0.02826092    -0.46970
Co1103     Co  0.74651965  0.55161241  0.05319729     0.73890
C1104       C  0.67212388  0.60839814  0.03716455    -0.07300
C1105       C  0.82123674  0.54066262  0.39119091    -0.06860
N1106       N  0.70216340  0.91769793  0.47328752    -0.26390
N1107       N  0.82082415  0.60994310  0.46684492    -0.47150
H1108       H  0.66358598  0.57094891  0.38521108     0.06500
C1109       C  0.67200049  0.96169392  0.10388881    -0.07270
Cl1110     Cl  0.74663181  0.50118472  0.49755164    -0.50270
C1111       C  0.84127382  0.00006820  0.12154955     0.42260
H1112       H  0.66361518  0.89007972  0.42702479     0.06470
N1113       N  0.67234037  0.53101238  0.10736768    -0.46990
C1114       C  0.62027855  0.49766670  0.65264433     0.42110
N1115       N  0.58214663  0.51713027  0.70219280     0.01000
C1116       C  0.95816786  0.89334740  0.82254380    -0.06880
H1117       H  0.92491373  0.89096020  0.66565119     0.06490
C1118       C  0.88956327  0.53915807  0.67246731    -0.07230
Co1119     Co  0.54701173  0.94560686  0.74757323     0.74180
N1120       N  0.97204177  0.91791106  0.70339288    -0.26410
Co1121     Co  0.94103213  0.95075798  0.74820762     0.74070
C1122       C  0.87275151  0.50237419  0.65338876     0.42210
N1123       N  0.98050937  0.58676951  0.70268682     0.00610
N1124       N  0.91097842  0.98474133  0.70348877     0.00720
N1125       N  0.52747878  0.89096186  0.82117798    -0.47260
H1126       H  0.60798627  0.92959795  0.66601978     0.06480
N1127       N  0.51240043  0.91564954  0.70286083     0.01000
N1128       N  0.91126020  0.98523541  0.79300919     0.00740
C1129       C  0.87304093  0.00468986  0.84250076     0.42350
N1130       N  0.52090657  0.58494508  0.70264944    -0.25870
C1131       C  0.60360102  0.96321314  0.82287294    -0.06790
N1132       N  0.60647652  0.53103612  0.67278975    -0.46970
N1133       N  0.88687642  0.97132542  0.82236778    -0.47190
C1134       C  0.62031549  0.99999625  0.84202159     0.42120
N1135       N  0.51291389  0.91562085  0.79248856     0.00990
N1136       N  0.52138953  0.58449468  0.79177105    -0.25890
N1137       N  0.57988158  0.97675364  0.70276750    -0.26380
N1138       N  0.98103168  0.58674668  0.79232025     0.00630
H1139       H  0.56854024  0.61152732  0.82942821     0.06520
H1140       H  0.88534996  0.57276087  0.82914388     0.06560
N1141       N  0.97252011  0.91745108  0.79253775    -0.26430
N1142       N  0.91294218  0.52513709  0.70319831    -0.26040
N1143       N  0.58235524  0.51762819  0.79173255     0.01000
C1144       C  0.49295819  0.87881837  0.65227070     0.42390
C1145       C  0.53527256  0.60910967  0.67269573    -0.07290
N1146       N  0.91353074  0.52561373  0.79244441    -0.26040
H1147       H  0.88422591  0.57102091  0.66515352     0.06540
N1148       N  0.52631163  0.89211781  0.67280787    -0.47260
H1149       H  0.56721408  0.61493645  0.66607061     0.06530
C1150       C  0.00050219  0.62366656  0.84284010     0.42230
C1151       C  0.60293456  0.96171240  0.67242130    -0.06790
Co1152     Co  0.55237557  0.55162023  0.74698089     0.73820
N1153       N  0.96596042  0.61148606  0.67403588    -0.46980
C1154       C  0.99471007  0.87611444  0.84146416     0.42490
N1155       N  0.60614738  0.53252019  0.82103627    -0.46970
Co1156     Co  0.94639457  0.55677222  0.74762068     0.73890
C1157       C  0.89043115  0.54064729  0.82276124    -0.07300
C1158       C  0.95700999  0.89559631  0.67245287    -0.06860
N1159       N  0.58038465  0.97723517  0.79202542    -0.26390
N1160       N  0.88703832  0.96985092  0.67429996    -0.47150
H1161       H  0.92622943  0.88755083  0.82920989     0.06500
C1162       C  0.53644015  0.60686473  0.82266289    -0.07270
Cl1163     Cl  0.49670014  0.50119152  0.74758716    -0.50270
C1164       C  0.49873782  0.62638033  0.65378973     0.42260
H1165       H  0.60886392  0.93135180  0.83024655     0.06470
N1166       N  0.96713768  0.61032501  0.82234518    -0.46990
C1167       C  0.49672880  0.65861479  0.62268131     0.42110
N1168       N  0.51422815  0.70837560  0.58384988     0.01000
C1169       C  0.88874692  0.82365947  0.95789258    -0.06880
H1170       H  0.88505674  0.66634942  0.92901404     0.06490
C1171       C  0.53638575  0.67503443  0.89209529    -0.07230
Co1172     Co  0.94146325  0.75117260  0.54831756     0.74180
N1173       N  0.91387746  0.70461279  0.97469983    -0.26410
Co1174     Co  0.94595982  0.74919405  0.94231301     0.74070
C1175       C  0.50048371  0.65475241  0.87512375     0.42210
N1176       N  0.58311868  0.70774083  0.98171937     0.00610
N1177       N  0.98085295  0.70450690  0.91289667     0.00720
N1178       N  0.88584209  0.82408071  0.52722399    -0.47260
H1179       H  0.92811863  0.66987140  0.61126352     0.06480
N1180       N  0.91218275  0.70515587  0.51509697     0.01000
N1181       N  0.97922380  0.79409272  0.91133731     0.00740
C1182       C  0.99672386  0.84390376  0.87258062     0.42350
N1183       N  0.58112641  0.70870686  0.52209440    -0.25870
C1184       C  0.95708006  0.82747611  0.60299734    -0.06790
N1185       N  0.52926066  0.67949402  0.60805956    -0.46970
N1186       N  0.96419170  0.82301004  0.88717478    -0.47190
C1187       C  0.99298452  0.84775371  0.61996878     0.42120
N1188       N  0.91029777  0.79472308  0.51342301     0.00990
N1189       N  0.57948834  0.79787207  0.52044595    -0.25890
N1190       N  0.97383048  0.70781448  0.58211427    -0.26380
N1191       N  0.58118476  0.79731990  0.98005223     0.00630
H1192       H  0.60805598  0.83634909  0.56611008     0.06520
H1193       H  0.56533476  0.83263341  0.88397141     0.06560
N1194       N  0.91229155  0.79374667  0.97304804    -0.26430
N1195       N  0.52122526  0.70550485  0.91491981    -0.26040
N1196       N  0.51260123  0.79795271  0.58225423     0.01000
C1197       C  0.87414306  0.65474895  0.49764831     0.42390
C1198       C  0.60458527  0.67872033  0.53723472    -0.07290
N1199       N  0.51961956  0.79464963  0.91306389    -0.26040
H1200       H  0.56851467  0.66899715  0.88678000     0.06540
N1201       N  0.88838284  0.67593816  0.53014807    -0.47260
H1202       H  0.60974414  0.67252067  0.56935962     0.06530
C1203       C  0.61893288  0.84793750  0.99747062     0.42230
C1204       C  0.95994764  0.67733214  0.60583837    -0.06790
Co1205     Co  0.54747661  0.75326624  0.55284457     0.73820
N1206       N  0.60748353  0.67831756  0.96790217    -0.46980
C1207       C  0.87151037  0.84369237  0.99379555     0.42490
N1208       N  0.52640130  0.82774439  0.60621000    -0.46970
Co1209     Co  0.55196903  0.75129261  0.94683444     0.73890
C1210       C  0.53350620  0.82516194  0.88938358    -0.07300
C1211       C  0.89071541  0.67366099  0.96084298    -0.06860
N1212       N  0.97223020  0.79697194  0.58021264    -0.26390
N1213       N  0.96706139  0.67472949  0.88891863    -0.47150
H1214       H  0.88354411  0.82980531  0.92576424     0.06500
C1215       C  0.60247502  0.82895665  0.53428619    -0.07270
Cl1216     Cl  0.49671489  0.75122439  0.99757843    -0.50270
C1217       C  0.62175509  0.65865127  0.00132071     0.42260
H1218       H  0.92495228  0.83353970  0.60828976     0.06470
N1219       N  0.60481647  0.82665829  0.96498258    -0.46990
C1220       C  0.84042363  0.87604493  0.99384631     0.42110
N1221       N  0.79182474  0.91541957  0.51337698     0.01000
C1222       C  0.67080831  0.53908661  0.89067439    -0.06880
H1223       H  0.82777915  0.57277053  0.88627144     0.06490
C1224       C  0.82210981  0.60751724  0.53616042    -0.07230
Co1225     Co  0.74671350  0.95075250  0.94190209     0.74180
N1226       N  0.79076346  0.52563674  0.91410652    -0.26410
Co1227     Co  0.74607909  0.55677054  0.94721560     0.74070
C1228       C  0.84178121  0.62383425  0.49961673     0.42210
N1229       N  0.79142511  0.51768285  0.58299930     0.00610
N1230       N  0.79101678  0.58662345  0.98142603     0.00720
N1231       N  0.67267094  0.96977251  0.88816899    -0.47260
H1232       H  0.82713184  0.88847124  0.92581118     0.06480
N1233       N  0.79134147  0.98526196  0.91185512     0.01000
N1234       N  0.70139880  0.58691675  0.98172021     0.00740
C1235       C  0.65275242  0.62622348  0.00125208     0.42350
N1236       N  0.79171118  0.97727924  0.58108349    -0.25870
C1237       C  0.67098894  0.89507376  0.95894664    -0.06790
N1238       N  0.82064401  0.89037696  0.52723192    -0.46970
N1239       N  0.67255905  0.61193392  0.96786596    -0.47190
C1240       C  0.65125668  0.87886180  0.99549706     0.42120
N1241       N  0.70180175  0.98468377  0.91215476     0.00990
N1242       N  0.70247392  0.97672299  0.58097793    -0.25890
N1243       N  0.79130112  0.91766391  0.97300518    -0.26380
N1244       N  0.70189458  0.51709497  0.58322565     0.00630
H1245       H  0.66546549  0.92958592  0.60881680     0.06520
H1246       H  0.66603070  0.61377910  0.56928380     0.06560
N1247       N  0.70150488  0.52508240  0.91408717    -0.26430
N1248       N  0.79104453  0.58474269  0.52181065    -0.26040
N1249       N  0.70219614  0.91582052  0.51366901     0.01000
C1250       C  0.84111327  0.00470339  0.87397965     0.42390
C1251       C  0.82229214  0.96327040  0.60465169    -0.07290
N1252       N  0.70191211  0.58465556  0.52208890    -0.26040
H1253       H  0.82942696  0.61256942  0.56808652     0.06540
N1254       N  0.82089706  0.97134338  0.88771174    -0.47260
H1255       H  0.82944686  0.93140609  0.61019195     0.06530
C1256       C  0.65212727  0.49765252  0.62109794     0.42230
C1257       C  0.82105307  0.89387119  0.95792996    -0.06790
Co1258     Co  0.74715613  0.94560055  0.54788825     0.73820
N1259       N  0.82045327  0.53258784  0.60711866    -0.46980
C1260       C  0.65177141  0.50228873  0.87385643     0.42490
N1261       N  0.67228517  0.89264848  0.52826093    -0.46970
Co1262     Co  0.74651965  0.55161243  0.55319729     0.73890
C1263       C  0.67212388  0.60839815  0.53716455    -0.07300
C1264       C  0.82123675  0.54066261  0.89119091    -0.06860
N1265       N  0.70216340  0.91769793  0.97328752    -0.26390
N1266       N  0.82082415  0.60994309  0.96684492    -0.47150
H1267       H  0.66358598  0.57094890  0.88521109     0.06500
C1268       C  0.67200049  0.96169393  0.60388881    -0.07270
Cl1269     Cl  0.74663181  0.50118470  0.99755164    -0.50270
C1270       C  0.84127382  0.00006821  0.62154956     0.42260
H1271       H  0.66361518  0.89007972  0.92702478     0.06470
N1272       N  0.67234037  0.53101240  0.60736769    -0.46990
loop_ 
_geom_bond_atom_site_label_1 
_geom_bond_atom_site_label_2 
_geom_bond_distance 
_geom_bond_site_symmetry_2 
_ccdc_geom_bond_type 
C1           N19   1.350   1_565  A
C1          C143   1.464       .  S
C1          C356   1.455       .  S
N2           N19   1.326       .  A
N2          N342   1.320   1_545  A
N2          Co39   2.086       .  S
C3           N28   1.342       .  A
C3           C41   1.457       .  S
C3           H48   1.082       .  S
H4           C45   1.082       .  S
C5           N29   1.342       .  A
C5            C9   1.459       .  S
C5           H34   1.082       .  S
Co6          N24   2.080       .  S
Co6          N14   2.088       .  S
Co6          N46   2.087       .  S
Co6          N22   2.086       .  S
Co6        Cl368   2.449   1_455  S
N7           C45   1.338       .  A
N7          N650   1.320       .  A
N7           Co8   2.078       .  S
Co8          N11   2.081       .  S
Co8          N28   2.083       .  S
Co8          N15   2.086       .  S
Co8       Cl1004   2.451       .  S
C9          N365   1.347   1_545  A
C9          C475   1.464       .  S
N10          N40   1.324       .  A
N10         N653   1.320       .  A
N10         Co43   2.087       .  S
N11          N47   1.324       .  A
N11         N347   1.320       .  A
N12         C677   1.348   1_455  A
N12          N22   1.324       .  A
H13          C38   1.082       .  S
N14          N35   1.326       .  A
N14         N643   1.320   1_455  A
N15          N20   1.327       .  A
N15         N351   1.320       .  A
C16          N20   1.350       .  A
C16         C137   1.464       .  S
C16         C362   1.455       .  S
N17          C32   1.342       .  A
N17         N646   1.320   1_455  A
N17         Co39   2.083       .  S
C18          N46   1.342       .  A
C18          C21   1.459       .  S
C18          H52   1.082       .  S
C21         N360   1.347       .  A
C21         C465   1.463       .  S
N22         N664   1.320   1_455  A
N23          C49   1.338       .  A
N23         N661   1.320   1_455  A
N23         Co39   2.077       .  S
N24          C38   1.338       .  A
N24         N320   1.320       .  A
N25          N53   1.326       .  A
N25         N659   1.320       .  A
N25         Co43   2.088       .  S
H26          C49   1.082       .  S
H27          C44   1.082       .  S
N28         N658   1.320       .  A
N29         N329   1.320   1_545  A
N29         Co43   2.087       .  S
N30          N42   1.324       .  A
N30         N364   1.320   1_545  A
N30         Co39   2.081       .  S
C31          N35   1.350   1_655  A
C31         C681   1.454       .  S
C31         C710   1.462       .  S
C32          C51   1.457   1_455  S
C32          H36   1.082       .  S
N33          C44   1.338       .  A
N33         N333   1.320   1_545  A
N33         Co43   2.081       .  S
C37          N53   1.350       .  A
C37         C685   1.454       .  S
C37         C698   1.462       .  S
C38         C319   1.455       .  S
Co39        Cl50   2.451   1_455  S
N40         C687   1.349       .  A
C41         N648   1.348       .  A
C41          C69   1.465       .  S
N42         C339   1.347   1_545  A
Co43       Cl686   2.449       .  S
C44         C334   1.455       .  S
C45         C667   1.454       .  S
N46         N348   1.320       .  A
N47         C327   1.347       .  A
C49         C673   1.454       .  S
Cl50       Co324   2.449   1_645  S
Cl50       Co962   2.451   1_545  S
Cl50       Co679   2.449       .  S
C51         N676   1.349       .  A
C51          C54   1.465       .  S
C54          N72   1.349   1_655  A
C54         C727   1.456       .  S
N55          N72   1.326       .  A
N55         N713   1.320   1_455  A
N55         Co92   2.086       .  S
C56          N81   1.339       .  A
C56          C94   1.455       .  S
C56         H101   1.082       .  S
H57          C98   1.082       .  S
C58          N82   1.338       .  A
C58          C62   1.455       .  S
C58          H87   1.082       .  S
Co59         N77   2.084       .  S
Co59         N67   2.083       .  S
Co59         N99   2.079       .  S
Co59         N75   2.088       .  S
Co59       Cl898   2.450   1_554  S
N60          C98   1.340       .  A
N60         N226   1.320       .  A
N60         Co61   2.082       .  S
Co61         N64   2.086       .  S
Co61         N81   2.082       .  S
Co61         N68   2.086       .  S
Co61       Cl739   2.450       .  S
C62         N736   1.349   1_455  A
C62         C673   1.462       .  S
N63          N93   1.327       .  A
N63         N229   1.320       .  A
N63         Co96   2.088       .  S
N64         N100   1.326       .  A
N64         N718   1.320       .  A
N65         C253   1.350   1_554  A
N65          N75   1.327       .  A
H66          C91   1.082       .  S
N67          N88   1.325       .  A
N67         N219   1.320   1_554  A
N68          N73   1.326       .  A
N68         N722   1.320       .  A
C69          N73   1.349       .  A
C69         C733   1.456       .  S
N70          C85   1.339       .  A
N70         N222   1.320   1_554  A
N70         Co92   2.082       .  S
C71          N99   1.338       .  A
C71          C74   1.455       .  S
C71         H105   1.082       .  S
C74         N731   1.349       .  A
C74         C667   1.462       .  S
N75         N240   1.320   1_554  A
N76         C102   1.340       .  A
N76         N237   1.320   1_554  A
N76         Co92   2.082       .  S
N77          C91   1.340       .  A
N77         N691   1.320       .  A
N78         N106   1.325       .  A
N78         N235   1.320       .  A
N78         Co96   2.083       .  S
H79         C102   1.082       .  S
H80          C97   1.082       .  S
N81         N234   1.320       .  A
N82         N700   1.320   1_455  A
N82         Co96   2.079       .  S
N83          N95   1.326       .  A
N83         N735   1.320   1_455  A
N83         Co92   2.085       .  S
C84          N88   1.348   1_556  A
C84         C115   1.462       .  S
C84         C257   1.456       .  S
C85         C263   1.455       .  S
C85          H89   1.082       .  S
N86          C97   1.340       .  A
N86         N704   1.320   1_455  A
N86         Co96   2.084       .  S
C90         N106   1.348       .  A
C90         C127   1.461       .  S
C90         C261   1.456       .  S
C91         C690   1.456       .  S
Co92       Cl262   2.451   1_454  S
N93         C104   1.350       .  A
C94         N224   1.350       .  A
C94         C107   1.466       .  S
N95         C710   1.349   1_455  A
Co96       Cl103   2.450   1_455  S
C97         C705   1.456   1_455  S
C98         C243   1.456       .  S
N99         N719   1.320       .  A
N100        C698   1.349       .  A
C102        C249   1.456   1_554  S
Cl103      Co854   2.450       .  S
Cl103      Co697   2.450       .  S
Cl103      Co251   2.451   1_655  S
C104        C122   1.466       .  S
C104        C244   1.455       .  S
C107        N284   1.351       .  A
C107        C144   1.455       .  S
N108        N125   1.327       .  A
N108        N289   1.320   1_554  A
N108       Co145   2.090       .  S
C109        N134   1.341       .  A
C109        C147   1.459       .  S
C109        H154   1.082       .  S
H110        C151   1.082       .  S
C111        N135   1.341       .  A
C111        C115   1.456   1_554  S
C111        H140   1.082       .  S
Co112       N130   2.079       .  S
Co112       N120   2.087       .  S
Co112       N152   2.081       .  S
Co112       N128   2.080       .  S
Co112      Cl474   2.451       .  S
N113        C151   1.338       .  A
N113        N438   1.320   1_545  A
N113       Co114   2.082       .  S
Co114       N117   2.084       .  S
Co114       N134   2.086       .  S
Co114       N121   2.090       .  S
Co114      Cl156   2.450       .  S
C115        N312   1.348       .  A
N116        N146   1.324       .  A
N116        N441   1.321   1_545  A
N116       Co149   2.081       .  S
N117        N153   1.324       .  A
N117        N294   1.320       .  A
N118        C465   1.347       .  A
N118        N128   1.324       .  A
H119        C144   1.082       .  S
N120        N141   1.327       .  A
N120        N431   1.320       .  A
N121        N126   1.327       .  A
N121        N298   1.320       .  A
C122        N126   1.351       .  A
C122        C309   1.455       .  S
N123        C138   1.342       .  A
N123        N434   1.321       .  A
N123       Co145   2.087       .  S
C124        N152   1.341       .  A
C124        C127   1.456       .  S
C124        H158   1.082       .  S
N125        C266   1.351   1_554  A
C127        N307   1.348       .  A
N128        N452   1.320       .  A
N129        C155   1.338       .  A
N129        N449   1.320       .  A
N129       Co145   2.081       .  S
N130        C144   1.338       .  A
N130        N267   1.320       .  A
N131        N159   1.327       .  A
N131        N447   1.320   1_545  A
N131       Co149   2.087       .  S
H132        C155   1.082       .  S
H133        C150   1.082       .  S
N134        N446   1.320   1_545  A
N135        N276   1.320   1_554  A
N135       Co149   2.082       .  S
N136        N148   1.324       .  A
N136        N311   1.320   1_554  A
N136       Co145   2.084       .  S
C137        N141   1.350       .  A
C137        C469   1.455       .  S
C138        C157   1.459       .  S
C138        H142   1.082       .  S
N139        C150   1.338       .  A
N139        N280   1.320   1_554  A
N139       Co149   2.079       .  S
C143        N159   1.350   1_565  A
C143        C473   1.455       .  S
Co145      Cl633   2.450   1_554  S
N146        C475   1.347       .  A
C147        N436   1.347   1_545  A
C147        C339   1.463   1_545  S
N148        C286   1.348   1_554  A
Co149      Cl315   2.451   1_554  S
C150        C281   1.455       .  S
C151        C455   1.455       .  S
N152        N295   1.320       .  A
N153        C274   1.348       .  A
C155        C461   1.455       .  S
Cl156      Co430   2.451   1_545  S
Cl156      Co622   2.450   1_545  S
Cl156      Co308   2.451       .  S
C157        N464   1.347       .  A
C157        C327   1.464       .  S
C160        N178   1.350   1_565  A
C160        C515   1.455       .  S
C160        C302   1.464       .  S
N161        N178   1.326       .  A
N161        N501   1.320   1_545  A
N161       Co198   2.086       .  S
C162        N187   1.342       .  A
C162        C200   1.457       .  S
C162        H207   1.082       .  S
H163        C204   1.082       .  S
C164        N188   1.342       .  A
C164        C168   1.459       .  S
C164        H193   1.082       .  S
Co165       N183   2.080       .  S
Co165       N173   2.088       .  S
Co165       N205   2.087       .  S
Co165       N181   2.086       .  S
Co165      Cl527   2.449   1_455  S
N166        C204   1.338       .  A
N166        N809   1.320       .  A
N166       Co167   2.078       .  S
Co167       N170   2.081       .  S
Co167       N187   2.083       .  S
Co167       N174   2.086       .  S
Co167     Cl1163   2.451       .  S
C168        N524   1.347   1_545  A
C168        C634   1.464       .  S
N169        N812   1.320       .  A
N169        N199   1.324       .  A
N169       Co202   2.087       .  S
N170        N506   1.320       .  A
N170        N206   1.324       .  A
N171        C836   1.348   1_455  A
N171        N181   1.324       .  A
H172        C197   1.082       .  S
N173        N802   1.320   1_455  A
N173        N194   1.326       .  A
N174        N510   1.320       .  A
N174        N179   1.327       .  A
C175        N179   1.350       .  A
C175        C521   1.455       .  S
C175        C296   1.464       .  S
N176        C191   1.342       .  A
N176        N805   1.320   1_455  A
N176       Co198   2.083       .  S
C177        N205   1.342       .  A
C177        C180   1.459       .  S
C177        H211   1.082       .  S
C180        N519   1.347       .  A
C180        C624   1.463       .  S
N181        N823   1.320   1_455  A
N182        C208   1.338       .  A
N182        N820   1.320   1_455  A
N182       Co198   2.077       .  S
N183        C197   1.338       .  A
N183        N479   1.320       .  A
N184        N818   1.320       .  A
N184        N212   1.326       .  A
N184       Co202   2.088       .  S
H185        C208   1.082       .  S
H186        C203   1.082       .  S
N187        N817   1.320       .  A
N188        N488   1.320   1_545  A
N188       Co202   2.087       .  S
N189        N201   1.324       .  A
N189        N523   1.320   1_545  A
N189       Co198   2.081       .  S
C190        N194   1.350   1_655  A
C190        C840   1.454       .  S
C190        C869   1.462       .  S
C191        C210   1.457   1_455  S
C191        H195   1.082       .  S
N192        C203   1.338       .  A
N192        N492   1.320   1_545  A
N192       Co202   2.081       .  S
C196        N212   1.350       .  A
C196        C844   1.454       .  S
C196        C857   1.462       .  S
C197        C478   1.455       .  S
Co198      Cl209   2.451   1_455  S
N199        C846   1.349       .  A
C200        N807   1.348       .  A
C200        C228   1.465       .  S
N201        C498   1.347   1_545  A
Co202      Cl845   2.449       .  S
C203        C493   1.455       .  S
C204        C826   1.454       .  S
N205        N507   1.320       .  A
N206        C486   1.347       .  A
C208        C832   1.454       .  S
Cl209      Co483   2.449   1_645  S
Cl209     Co1121   2.451   1_545  S
Cl209      Co838   2.449       .  S
C210        N835   1.349       .  A
C210        C213   1.465       .  S
C213        N231   1.349   1_655  A
C213        C886   1.456       .  S
N214        N231   1.326       .  A
N214        N872   1.320   1_455  A
N214       Co251   2.086       .  S
C215        N240   1.339       .  A
C215        C253   1.455       .  S
C215        H260   1.082       .  S
H216        C257   1.082       .  S
C217        N241   1.338       .  A
C217        C221   1.455       .  S
C217        H246   1.082       .  S
Co218       N236   2.084       .  S
Co218       N226   2.083       .  S
Co218       N258   2.079       .  S
Co218       N234   2.088       .  S
Co218      Cl739   2.450       .  S
N219        C257   1.340       .  A
N219       Co220   2.082       .  S
Co220       N223   2.086       .  S
Co220       N240   2.082       .  S
Co220       N227   2.086       .  S
Co220      Cl898   2.450       .  S
C221        N895   1.349   1_455  A
C221        C832   1.462       .  S
N222        N252   1.327       .  A
N222       Co255   2.088       .  S
N223        N877   1.320       .  A
N223        N259   1.326       .  A
N224        N234   1.327       .  A
H225        C250   1.082       .  S
N226        N247   1.325       .  A
N227        N881   1.320       .  A
N227        N232   1.326       .  A
C228        N232   1.349       .  A
C228        C892   1.456       .  S
N229        C244   1.339       .  A
N229       Co251   2.082       .  S
C230        N258   1.338       .  A
C230        C233   1.455       .  S
C230        H264   1.082       .  S
C233        N890   1.349       .  A
C233        C826   1.462       .  S
N235        C261   1.340       .  A
N235       Co251   2.082       .  S
N236        C250   1.340       .  A
N236        N850   1.320       .  A
N237        N265   1.325       .  A
N237       Co255   2.083       .  S
H238        C261   1.082       .  S
H239        C256   1.082       .  S
N241        N859   1.320   1_455  A
N241       Co255   2.079       .  S
N242        N254   1.326       .  A
N242        N894   1.320   1_455  A
N242       Co251   2.085       .  S
C243        N247   1.348       .  A
C243        C274   1.462       .  S
C244        H248   1.082       .  S
N245        C256   1.340       .  A
N245        N863   1.320   1_455  A
N245       Co255   2.084       .  S
C249        N265   1.348       .  A
C249        C286   1.461       .  S
C250        C849   1.456       .  S
N252        C263   1.350   1_556  A
C253        C266   1.466       .  S
N254        C869   1.349   1_455  A
Co255      Cl262   2.450   1_455  S
C256        C864   1.456   1_455  S
N258        N878   1.320       .  A
N259        C857   1.349       .  A
Cl262      Co695   2.450   1_556  S
Cl262      Co856   2.450       .  S
C263        C281   1.466       .  S
C266        C303   1.455       .  S
N267        N284   1.327       .  A
N267       Co304   2.090       .  S
C268        N293   1.341       .  A
C268        C306   1.459       .  S
C268        H313   1.082       .  S
H269        C310   1.082       .  S
C270        N294   1.341       .  A
C270        C274   1.456       .  S
C270        H299   1.082       .  S
Co271       N289   2.079       .  S
Co271       N279   2.087       .  S
Co271       N311   2.081       .  S
Co271       N287   2.080       .  S
Co271      Cl633   2.451       .  S
N272        C310   1.338       .  A
N272        N597   1.320   1_545  A
N272       Co273   2.082       .  S
Co273       N276   2.084       .  S
Co273       N293   2.086       .  S
Co273       N280   2.090       .  S
Co273      Cl315   2.450       .  S
N275        N600   1.321   1_545  A
N275        N305   1.324       .  A
N275       Co308   2.081       .  S
N276        N312   1.324       .  A
N277        C624   1.347       .  A
N277        N287   1.324       .  A
H278        C303   1.082       .  S
N279        N590   1.320       .  A
N279        N300   1.327       .  A
N280        N285   1.327       .  A
C281        N285   1.351   1_554  A
N282        C297   1.342       .  A
N282        N593   1.321       .  A
N282       Co304   2.087       .  S
C283        N311   1.341       .  A
C283        C286   1.456       .  S
C283        H317   1.082       .  S
N287        N611   1.320       .  A
N288        C314   1.338       .  A
N288        N608   1.320       .  A
N288       Co304   2.081       .  S
N289        C303   1.338       .  A
N290        N606   1.320   1_545  A
N290        N318   1.327       .  A
N290       Co308   2.087       .  S
H291        C314   1.082       .  S
H292        C309   1.082       .  S
N293        N605   1.320   1_545  A
N294       Co308   2.082       .  S
N295        N307   1.324       .  A
N295       Co304   2.084       .  S
C296        N300   1.350       .  A
C296        C628   1.455       .  S
C297        C316   1.459       .  S
C297        H301   1.082       .  S
N298        C309   1.338       .  A
N298       Co308   2.079       .  S
C302        N318   1.350   1_565  A
C302        C632   1.455       .  S
Co304      Cl474   2.450       .  S
N305        C634   1.347       .  A
C306        N595   1.347   1_545  A
C306        C498   1.463   1_545  S
C310        C614   1.455       .  S
C314        C620   1.455       .  S
Cl315      Co589   2.451   1_545  S
Cl315      Co463   2.450   1_546  S
C316        N623   1.347       .  A
C316        C486   1.464       .  S
C319        N337   1.350       .  A
C319        C461   1.464       .  S
N320        N337   1.326       .  A
N320       Co357   2.086       .  S
C321        N346   1.342       .  A
C321        C359   1.457       .  S
C321        H366   1.082       .  S
H322        C363   1.082       .  S
C323        N347   1.342       .  A
C323        C327   1.459       .  S
C323        H352   1.082       .  S
Co324       N342   2.080       .  S
Co324       N332   2.088       .  S
Co324       N364   2.087       .  S
Co324       N340   2.086       .  S
N325        C363   1.338       .  A
N325        N968   1.320       .  A
N325       Co326   2.078       .  S
Co326       N329   2.081       .  S
Co326       N346   2.083       .  S
Co326       N333   2.086       .  S
Co326      Cl686   2.451   1_565  S
N328        N971   1.320       .  A
N328        N358   1.324       .  A
N328       Co361   2.087       .  S
N329        N365   1.324       .  A
N330        C995   1.348   1_455  A
N330        N340   1.324       .  A
H331        C356   1.082       .  S
N332        N961   1.320   1_455  A
N332        N353   1.326       .  A
N333        N338   1.327       .  A
C334        N338   1.350   1_545  A
C334        C455   1.464       .  S
N335        C350   1.342       .  A
N335        N964   1.320   1_455  A
N335       Co357   2.083       .  S
C336        N364   1.342       .  A
C336        C339   1.459       .  S
C336        H370   1.082       .  S
N340        N982   1.320   1_455  A
N341        C367   1.338       .  A
N341        N979   1.320   1_455  A
N341       Co357   2.077       .  S
N342        C356   1.338       .  A
N343        N977   1.320       .  A
N343        N371   1.326       .  A
N343       Co361   2.088       .  S
H344        C367   1.082       .  S
H345        C362   1.082       .  S
N346        N976   1.320       .  A
N347       Co361   2.087       .  S
N348        N360   1.324       .  A
N348       Co357   2.081       .  S
C349        N353   1.350   1_655  A
C349        C999   1.454       .  S
C349       C1028   1.462       .  S
C350        C369   1.457   1_455  S
C350        H354   1.082       .  S
N351        C362   1.338       .  A
N351       Co361   2.081       .  S
C355        N371   1.350       .  A
C355       C1003   1.454       .  S
C355       C1016   1.462       .  S
Co357      Cl368   2.451   1_455  S
N358       C1005   1.349       .  A
C359        N966   1.348       .  A
C359        C387   1.465       .  S
Co361     Cl1004   2.449       .  S
C363        C985   1.454       .  S
C367        C991   1.454       .  S
Cl368      Co644   2.451       .  S
Cl368      Co997   2.449       .  S
C369        N994   1.349       .  A
C369        C372   1.465       .  S
C372        N390   1.349   1_655  A
C372       C1045   1.456       .  S
N373        N390   1.326       .  A
N373       N1031   1.320   1_455  A
N373       Co410   2.086       .  S
C374        N399   1.339       .  A
C374        C412   1.455       .  S
C374        H419   1.082       .  S
H375        C416   1.082       .  S
C376        N400   1.338       .  A
C376        C380   1.455       .  S
C376        H405   1.082       .  S
Co377       N395   2.084       .  S
Co377       N385   2.083       .  S
Co377       N417   2.079       .  S
Co377       N393   2.088       .  S
Co377     Cl1216   2.450   1_554  S
N378        C416   1.340       .  A
N378        N544   1.320       .  A
N378       Co379   2.082       .  S
Co379       N382   2.086       .  S
Co379       N399   2.082       .  S
Co379       N386   2.086       .  S
Co379     Cl1057   2.450       .  S
C380       N1054   1.349   1_455  A
C380        C991   1.462       .  S
N381        N547   1.320       .  A
N381        N411   1.327       .  A
N381       Co414   2.088       .  S
N382       N1036   1.320       .  A
N382        N418   1.326       .  A
N383        C571   1.350   1_554  A
N383        N393   1.327       .  A
H384        C409   1.082       .  S
N385        N537   1.320   1_554  A
N385        N406   1.325       .  A
N386       N1040   1.320       .  A
N386        N391   1.326       .  A
C387        N391   1.349       .  A
C387       C1051   1.456       .  S
N388        C403   1.339       .  A
N388        N540   1.320   1_554  A
N388       Co410   2.082       .  S
C389        N417   1.338       .  A
C389        C392   1.455       .  S
C389        H423   1.082       .  S
C392       N1049   1.349       .  A
C392        C985   1.462       .  S
N393        N558   1.320   1_554  A
N394        C420   1.340       .  A
N394        N555   1.320   1_554  A
N394       Co410   2.082       .  S
N395        C409   1.340       .  A
N395       N1009   1.320       .  A
N396        N553   1.320       .  A
N396        N424   1.325       .  A
N396       Co414   2.083       .  S
H397        C420   1.082       .  S
H398        C415   1.082       .  S
N399        N552   1.320       .  A
N400       N1018   1.320   1_455  A
N400       Co414   2.079       .  S
N401        N413   1.326       .  A
N401       N1053   1.320   1_455  A
N401       Co410   2.085       .  S
C402        N406   1.348   1_556  A
C402        C575   1.456       .  S
C402        C433   1.462       .  S
C403        C581   1.455       .  S
C403        H407   1.082       .  S
N404        C415   1.340       .  A
N404       N1022   1.320   1_455  A
N404       Co414   2.084       .  S
C408        N424   1.348       .  A
C408        C579   1.456       .  S
C408        C445   1.461       .  S
C409       C1008   1.456       .  S
Co410      Cl580   2.451   1_454  S
N411        C422   1.350       .  A
C412        N542   1.350       .  A
C412        C425   1.466       .  S
N413       C1028   1.349   1_455  A
Co414      Cl421   2.450   1_455  S
C415       C1023   1.456   1_455  S
C416        C561   1.456       .  S
N417       N1037   1.320       .  A
N418       C1016   1.349       .  A
C420        C567   1.456   1_554  S
Cl421     Co1172   2.450       .  S
Cl421     Co1015   2.450       .  S
Cl421      Co569   2.451   1_655  S
C422        C562   1.455       .  S
C422        C440   1.466       .  S
C425        N602   1.351       .  A
C425        C462   1.455       .  S
N426        N443   1.327       .  A
N426        N607   1.320   1_554  A
N426       Co463   2.090       .  S
C427        N452   1.341       .  A
C427        C465   1.459       .  S
C427        H472   1.082       .  S
H428        C469   1.082       .  S
C429        N453   1.341       .  A
C429        C433   1.456   1_554  S
C429        H458   1.082       .  S
Co430       N448   2.079       .  S
Co430       N438   2.087       .  S
Co430       N470   2.081       .  S
Co430       N446   2.080       .  S
N431        C469   1.338       .  A
N431       Co432   2.082       .  S
Co432       N435   2.084       .  S
Co432       N452   2.086       .  S
Co432       N439   2.090       .  S
Co432      Cl474   2.450       .  S
C433        N630   1.348       .  A
N434        N464   1.324       .  A
N434       Co467   2.081       .  S
N435        N612   1.320       .  A
N435        N471   1.324       .  A
N436        N446   1.324       .  A
H437        C462   1.082       .  S
N438        N459   1.327       .  A
N439        N616   1.320       .  A
N439        N444   1.327       .  A
C440        N444   1.351       .  A
C440        C627   1.455       .  S
N441        C456   1.342       .  A
N441       Co463   2.087       .  S
C442        N470   1.341       .  A
C442        C445   1.456       .  S
C442        H476   1.082       .  S
N443        C584   1.351   1_554  A
C445        N625   1.348       .  A
N447        C473   1.338       .  A
N447       Co463   2.081       .  S
N448        C462   1.338       .  A
N448        N585   1.320       .  A
N449        N477   1.327       .  A
N449       Co467   2.087       .  S
H450        C473   1.082       .  S
H451        C468   1.082       .  S
N453        N594   1.320   1_554  A
N453       Co467   2.082       .  S
N454        N466   1.324       .  A
N454        N629   1.320   1_554  A
N454       Co463   2.084       .  S
C455        N459   1.350   1_545  A
C456        C475   1.459   1_565  S
C456        H460   1.082       .  S
N457        C468   1.338       .  A
N457        N598   1.320   1_554  A
N457       Co467   2.079       .  S
C461        N477   1.350       .  A
N466        C604   1.348   1_554  A
Co467      Cl633   2.451   1_554  S
C468        C599   1.455       .  S
N470        N613   1.320       .  A
N471        C592   1.348       .  A
Cl474      Co626   2.451       .  S
C478        N496   1.350       .  A
C478        C620   1.464       .  S
N479        N496   1.326       .  A
N479       Co516   2.086       .  S
C480        N505   1.342       .  A
C480        C518   1.457       .  S
C480        H525   1.082       .  S
H481        C522   1.082       .  S
C482        N506   1.342       .  A
C482        C486   1.459       .  S
C482        H511   1.082       .  S
Co483       N501   2.080       .  S
Co483       N491   2.088       .  S
Co483       N523   2.087       .  S
Co483       N499   2.086       .  S
N484        C522   1.338       .  A
N484       N1127   1.320       .  A
N484       Co485   2.078       .  S
Co485       N488   2.081       .  S
Co485       N505   2.083       .  S
Co485       N492   2.086       .  S
Co485      Cl845   2.451   1_565  S
N487       N1130   1.320       .  A
N487        N517   1.324       .  A
N487       Co520   2.087       .  S
N488        N524   1.324       .  A
N489       C1154   1.348   1_455  A
N489        N499   1.324       .  A
H490        C515   1.082       .  S
N491       N1120   1.320   1_455  A
N491        N512   1.326       .  A
N492        N497   1.327       .  A
C493        N497   1.350   1_545  A
C493        C614   1.464       .  S
N494        C509   1.342       .  A
N494       N1123   1.320   1_455  A
N494       Co516   2.083       .  S
C495        N523   1.342       .  A
C495        C498   1.459       .  S
C495        H529   1.082       .  S
N499       N1141   1.320   1_455  A
N500        C526   1.338       .  A
N500       N1138   1.320   1_455  A
N500       Co516   2.077       .  S
N501        C515   1.338       .  A
N502       N1136   1.320       .  A
N502        N530   1.326       .  A
N502       Co520   2.088       .  S
H503        C526   1.082       .  S
H504        C521   1.082       .  S
N505       N1135   1.320       .  A
N506       Co520   2.087       .  S
N507        N519   1.324       .  A
N507       Co516   2.081       .  S
C508        N512   1.350   1_655  A
C508       C1158   1.454       .  S
C508       C1187   1.462       .  S
C509        C528   1.457   1_455  S
C509        H513   1.082       .  S
N510        C521   1.338       .  A
N510       Co520   2.081       .  S
C514        N530   1.350       .  A
C514       C1162   1.454       .  S
C514       C1175   1.462       .  S
Co516      Cl527   2.451   1_455  S
N517       C1164   1.349       .  A
C518       N1125   1.348       .  A
C518        C546   1.465       .  S
Co520     Cl1163   2.449       .  S
C522       C1144   1.454       .  S
C526       C1150   1.454       .  S
Cl527      Co803   2.451       .  S
Cl527     Co1156   2.449       .  S
C528       N1153   1.349       .  A
C528        C531   1.465       .  S
C531        N549   1.349   1_655  A
C531       C1204   1.456       .  S
N532        N549   1.326       .  A
N532       N1190   1.320   1_455  A
N532       Co569   2.086       .  S
C533        N558   1.339       .  A
C533        C571   1.455       .  S
C533        H578   1.082       .  S
H534        C575   1.082       .  S
C535        N559   1.338       .  A
C535        C539   1.455       .  S
C535        H564   1.082       .  S
Co536       N554   2.084       .  S
Co536       N544   2.083       .  S
Co536       N576   2.079       .  S
Co536       N552   2.088       .  S
Co536     Cl1057   2.450       .  S
N537        C575   1.340       .  A
N537       Co538   2.082       .  S
Co538       N541   2.086       .  S
Co538       N558   2.082       .  S
Co538       N545   2.086       .  S
Co538     Cl1216   2.450       .  S
C539       N1213   1.349   1_455  A
C539       C1150   1.462       .  S
N540        N570   1.327       .  A
N540       Co573   2.088       .  S
N541       N1195   1.320       .  A
N541        N577   1.326       .  A
N542        N552   1.327       .  A
H543        C568   1.082       .  S
N544        N565   1.325       .  A
N545       N1199   1.320       .  A
N545        N550   1.326       .  A
C546        N550   1.349       .  A
C546       C1210   1.456       .  S
N547        C562   1.339       .  A
N547       Co569   2.082       .  S
C548        N576   1.338       .  A
C548        C551   1.455       .  S
C548        H582   1.082       .  S
C551       N1208   1.349       .  A
C551       C1144   1.462       .  S
N553        C579   1.340       .  A
N553       Co569   2.082       .  S
N554        C568   1.340       .  A
N554       N1168   1.320       .  A
N555        N583   1.325       .  A
N555       Co573   2.083       .  S
H556        C579   1.082       .  S
H557        C574   1.082       .  S
N559       N1177   1.320   1_455  A
N559       Co573   2.079       .  S
N560        N572   1.326       .  A
N560       N1212   1.320   1_455  A
N560       Co569   2.085       .  S
C561        N565   1.348       .  A
C561        C592   1.462       .  S
C562        H566   1.082       .  S
N563        C574   1.340       .  A
N563       N1181   1.320   1_455  A
N563       Co573   2.084       .  S
C567        N583   1.348       .  A
C567        C604   1.461       .  S
C568       C1167   1.456       .  S
N570        C581   1.350   1_556  A
C571        C584   1.466       .  S
N572       C1187   1.349   1_455  A
Co573      Cl580   2.450   1_455  S
C574       C1182   1.456   1_455  S
N576       N1196   1.320       .  A
N577       C1175   1.349       .  A
Cl580     Co1013   2.450   1_556  S
Cl580     Co1174   2.450       .  S
C581        C599   1.466       .  S
C584        C621   1.455       .  S
N585        N602   1.327       .  A
N585       Co622   2.090       .  S
C586        N611   1.341       .  A
C586        C624   1.459       .  S
C586        H631   1.082       .  S
H587        C628   1.082       .  S
C588        N612   1.341       .  A
C588        C592   1.456       .  S
C588        H617   1.082       .  S
Co589       N607   2.079       .  S
Co589       N597   2.087       .  S
Co589       N629   2.081       .  S
Co589       N605   2.080       .  S
N590        C628   1.338       .  A
N590       Co591   2.082       .  S
Co591       N594   2.084       .  S
Co591       N611   2.086       .  S
Co591       N598   2.090       .  S
Co591      Cl633   2.450       .  S
N593        N623   1.324       .  A
N593       Co626   2.081       .  S
N594        N630   1.324       .  A
N595        N605   1.324       .  A
H596        C621   1.082       .  S
N597        N618   1.327       .  A
N598        N603   1.327       .  A
C599        N603   1.351   1_554  A
N600        C615   1.342       .  A
N600       Co622   2.087       .  S
C601        N629   1.341       .  A
C601        C604   1.456       .  S
C601        H635   1.082       .  S
N606        C632   1.338       .  A
N606       Co622   2.081       .  S
N607        C621   1.338       .  A
N608        N636   1.327       .  A
N608       Co626   2.087       .  S
H609        C632   1.082       .  S
H610        C627   1.082       .  S
N612       Co626   2.082       .  S
N613        N625   1.324       .  A
N613       Co622   2.084       .  S
C614        N618   1.350   1_545  A
C615        C634   1.459   1_565  S
C615        H619   1.082       .  S
N616        C627   1.338       .  A
N616       Co626   2.079       .  S
C620        N636   1.350       .  A
C637        N655   1.350   1_565  A
C637        C992   1.455       .  S
C637        C779   1.464       .  S
N638        N655   1.326       .  A
N638        N978   1.320   1_545  A
N638       Co675   2.086       .  S
C639        N664   1.342       .  A
C639        C677   1.457       .  S
C639        H684   1.082       .  S
H640        C681   1.082       .  S
C641        N665   1.342       .  A
C641        C645   1.459       .  S
C641        H670   1.082       .  S
Co642       N660   2.080       .  S
Co642       N650   2.088       .  S
Co642       N682   2.087       .  S
Co642       N658   2.086       .  S
Co642     Cl1004   2.449       .  S
N643        C681   1.338       .  A
N643       Co644   2.078       .  S
Co644       N647   2.081       .  S
Co644       N664   2.083       .  S
Co644       N651   2.086       .  S
C645       N1001   1.347   1_545  A
C645       C1111   1.464       .  S
N646        N676   1.324       .  A
N646       Co679   2.087       .  S
N647        N983   1.320       .  A
N647        N683   1.324       .  A
N648        N658   1.324       .  A
H649        C674   1.082       .  S
N650        N671   1.326       .  A
N651        N987   1.320       .  A
N651        N656   1.327       .  A
C652        N656   1.350       .  A
C652        C998   1.455       .  S
C652        C773   1.464       .  S
N653        C668   1.342       .  A
N653       Co675   2.083       .  S
C654        N682   1.342       .  A
C654        C657   1.459       .  S
C654        H688   1.082       .  S
C657        N996   1.347       .  A
C657       C1101   1.463       .  S
N659        C685   1.338       .  A
N659       Co675   2.077       .  S
N660        C674   1.338       .  A
N660        N956   1.320       .  A
N661        N689   1.326       .  A
N661       Co679   2.088       .  S
H662        C685   1.082       .  S
H663        C680   1.082       .  S
N665        N965   1.320   1_545  A
N665       Co679   2.087       .  S
N666        N678   1.324       .  A
N666       N1000   1.320   1_545  A
N666       Co675   2.081       .  S
C667        N671   1.350       .  A
C668        C687   1.457       .  S
C668        H672   1.082       .  S
N669        C680   1.338       .  A
N669        N969   1.320   1_545  A
N669       Co679   2.081       .  S
C673        N689   1.350   1_455  A
C674        C955   1.455       .  S
Co675      Cl686   2.451       .  S
C677        C705   1.465       .  S
N678        C975   1.347   1_545  A
C680        C970   1.455       .  S
N682        N984   1.320       .  A
N683        C963   1.347       .  A
Cl686      Co960   2.449   1_545  S
C687        C690   1.465       .  S
C690        N708   1.349       .  A
N691        N708   1.326       .  A
N691       Co728   2.086       .  S
C692        N717   1.339       .  A
C692        C730   1.455       .  S
C692        H737   1.082       .  S
H693        C734   1.082       .  S
C694        N718   1.338       .  A
C694        C698   1.455       .  S
C694        H723   1.082       .  S
Co695       N713   2.084       .  S
Co695       N703   2.083       .  S
Co695       N735   2.079       .  S
Co695       N711   2.088       .  S
N696        C734   1.340       .  A
N696        N862   1.320       .  A
N696       Co697   2.082       .  S
Co697       N700   2.086       .  S
Co697       N717   2.082       .  S
Co697       N704   2.086       .  S
N699        N865   1.320       .  A
N699        N729   1.327       .  A
N699       Co732   2.088       .  S
N700        N736   1.326       .  A
N701        C889   1.350   1_554  A
N701        N711   1.327       .  A
H702        C727   1.082       .  S
N703        N855   1.320   1_554  A
N703        N724   1.325       .  A
N704        N709   1.326       .  A
C705        N709   1.349       .  A
N706        C721   1.339       .  A
N706        N858   1.320   1_554  A
N706       Co728   2.082       .  S
C707        N735   1.338       .  A
C707        C710   1.455       .  S
C707        H741   1.082       .  S
N711        N876   1.320   1_554  A
N712        C738   1.340       .  A
N712        N873   1.320   1_554  A
N712       Co728   2.082       .  S
N713        C727   1.340       .  A
N714        N871   1.320       .  A
N714        N742   1.325       .  A
N714       Co732   2.083       .  S
H715        C738   1.082       .  S
H716        C733   1.082       .  S
N717        N870   1.320       .  A
N718       Co732   2.079       .  S
N719        N731   1.326       .  A
N719       Co728   2.085       .  S
C720        N724   1.348   1_556  A
C720        C893   1.456       .  S
C720        C751   1.462       .  S
C721        C899   1.455       .  S
C721        H725   1.082       .  S
N722        C733   1.340       .  A
N722       Co732   2.084       .  S
C726        N742   1.348       .  A
C726        C897   1.456       .  S
C726        C763   1.461       .  S
Co728      Cl898   2.451   1_554  S
N729        C740   1.350       .  A
C730        N860   1.350       .  A
C730        C743   1.466       .  S
Co732      Cl739   2.450       .  S
C734        C879   1.456       .  S
C738        C885   1.456   1_554  S
Cl739      Co887   2.451       .  S
C740        C880   1.455       .  S
C740        C758   1.466       .  S
C743        N920   1.351       .  A
C743        C780   1.455       .  S
N744        N761   1.327       .  A
N744        N925   1.320   1_554  A
N744       Co781   2.090       .  S
C745        N770   1.341       .  A
C745        C783   1.459       .  S
C745        H790   1.082       .  S
H746        C787   1.082       .  S
C747        N771   1.341       .  A
C747        C751   1.456   1_554  S
C747        H776   1.082       .  S
Co748       N766   2.079       .  S
Co748       N756   2.087       .  S
Co748       N788   2.081       .  S
Co748       N764   2.080       .  S
Co748     Cl1110   2.451       .  S
N749        C787   1.338       .  A
N749       N1074   1.320   1_545  A
N749       Co750   2.082       .  S
Co750       N753   2.084       .  S
Co750       N770   2.086       .  S
Co750       N757   2.090       .  S
Co750      Cl792   2.450       .  S
C751        N948   1.348       .  A
N752       N1077   1.321   1_545  A
N752        N782   1.324       .  A
N752       Co785   2.081       .  S
N753        N930   1.320       .  A
N753        N789   1.324       .  A
N754       C1101   1.347       .  A
N754        N764   1.324       .  A
H755        C780   1.082       .  S
N756       N1067   1.320       .  A
N756        N777   1.327       .  A
N757        N934   1.320       .  A
N757        N762   1.327       .  A
C758        N762   1.351       .  A
C758        C945   1.455       .  S
N759        C774   1.342       .  A
N759       N1070   1.321       .  A
N759       Co781   2.087       .  S
C760        N788   1.341       .  A
C760        C763   1.456       .  S
C760        H794   1.082       .  S
N761        C902   1.351   1_554  A
C763        N943   1.348       .  A
N764       N1088   1.320       .  A
N765        C791   1.338       .  A
N765       N1085   1.320       .  A
N765       Co781   2.081       .  S
N766        C780   1.338       .  A
N766        N903   1.320       .  A
N767       N1083   1.320   1_545  A
N767        N795   1.327       .  A
N767       Co785   2.087       .  S
H768        C791   1.082       .  S
H769        C786   1.082       .  S
N770       N1082   1.320   1_545  A
N771        N912   1.320   1_554  A
N771       Co785   2.082       .  S
N772        N784   1.324       .  A
N772        N947   1.320   1_554  A
N772       Co781   2.084       .  S
C773        N777   1.350       .  A
C773       C1105   1.455       .  S
C774        C793   1.459       .  S
C774        H778   1.082       .  S
N775        C786   1.338       .  A
N775        N916   1.320   1_554  A
N775       Co785   2.079       .  S
C779        N795   1.350   1_565  A
C779       C1109   1.455       .  S
Co781     Cl1269   2.450   1_554  S
N782       C1111   1.347       .  A
C783       N1072   1.347   1_545  A
C783        C975   1.463   1_545  S
N784        C922   1.348   1_554  A
Co785      Cl951   2.451   1_554  S
C786        C917   1.455       .  S
C787       C1091   1.455       .  S
N788        N931   1.320       .  A
N789        C910   1.348       .  A
C791       C1097   1.455       .  S
Cl792     Co1066   2.451   1_545  S
Cl792     Co1258   2.450   1_545  S
Cl792      Co944   2.451       .  S
C793       N1100   1.347       .  A
C793        C963   1.464       .  S
C796        N814   1.350   1_565  A
C796       C1151   1.455       .  S
C796        C938   1.464       .  S
N797        N814   1.326       .  A
N797       N1137   1.320   1_545  A
N797       Co834   2.086       .  S
C798        N823   1.342       .  A
C798        C836   1.457       .  S
C798        H843   1.082       .  S
H799        C840   1.082       .  S
C800        N824   1.342       .  A
C800        C804   1.459       .  S
C800        H829   1.082       .  S
Co801       N819   2.080       .  S
Co801       N809   2.088       .  S
Co801       N841   2.087       .  S
Co801       N817   2.086       .  S
Co801     Cl1163   2.449       .  S
N802        C840   1.338       .  A
N802       Co803   2.078       .  S
Co803       N806   2.081       .  S
Co803       N823   2.083       .  S
Co803       N810   2.086       .  S
C804       N1160   1.347   1_545  A
C804       C1270   1.464       .  S
N805        N835   1.324       .  A
N805       Co838   2.087       .  S
N806       N1142   1.320       .  A
N806        N842   1.324       .  A
N807        N817   1.324       .  A
H808        C833   1.082       .  S
N809        N830   1.326       .  A
N810       N1146   1.320       .  A
N810        N815   1.327       .  A
C811        N815   1.350       .  A
C811       C1157   1.455       .  S
C811        C932   1.464       .  S
N812        C827   1.342       .  A
N812       Co834   2.083       .  S
C813        N841   1.342       .  A
C813        C816   1.459       .  S
C813        H847   1.082       .  S
C816       N1155   1.347       .  A
C816       C1260   1.463       .  S
N818        C844   1.338       .  A
N818       Co834   2.077       .  S
N819        C833   1.338       .  A
N819       N1115   1.320       .  A
N820        N848   1.326       .  A
N820       Co838   2.088       .  S
H821        C844   1.082       .  S
H822        C839   1.082       .  S
N824       N1124   1.320   1_545  A
N824       Co838   2.087       .  S
N825        N837   1.324       .  A
N825       N1159   1.320   1_545  A
N825       Co834   2.081       .  S
C826        N830   1.350       .  A
C827        C846   1.457       .  S
C827        H831   1.082       .  S
N828        C839   1.338       .  A
N828       N1128   1.320   1_545  A
N828       Co838   2.081       .  S
C832        N848   1.350   1_455  A
C833       C1114   1.455       .  S
Co834      Cl845   2.451       .  S
C836        C864   1.465       .  S
N837       C1134   1.347   1_545  A
C839       C1129   1.455       .  S
N841       N1143   1.320       .  A
N842       C1122   1.347       .  A
Cl845     Co1119   2.449   1_545  S
C846        C849   1.465       .  S
C849        N867   1.349       .  A
N850        N867   1.326       .  A
N850       Co887   2.086       .  S
C851        N876   1.339       .  A
C851        C889   1.455       .  S
C851        H896   1.082       .  S
H852        C893   1.082       .  S
C853        N877   1.338       .  A
C853        C857   1.455       .  S
C853        H882   1.082       .  S
Co854       N872   2.084       .  S
Co854       N862   2.083       .  S
Co854       N894   2.079       .  S
Co854       N870   2.088       .  S
N855        C893   1.340       .  A
N855       Co856   2.082       .  S
Co856       N859   2.086       .  S
Co856       N876   2.082       .  S
Co856       N863   2.086       .  S
N858        N888   1.327       .  A
N858       Co891   2.088       .  S
N859        N895   1.326       .  A
N860        N870   1.327       .  A
H861        C886   1.082       .  S
N862        N883   1.325       .  A
N863        N868   1.326       .  A
C864        N868   1.349       .  A
N865        C880   1.339       .  A
N865       Co887   2.082       .  S
C866        N894   1.338       .  A
C866        C869   1.455       .  S
C866        H900   1.082       .  S
N871        C897   1.340       .  A
N871       Co887   2.082       .  S
N872        C886   1.340       .  A
N873        N901   1.325       .  A
N873       Co891   2.083       .  S
H874        C897   1.082       .  S
H875        C892   1.082       .  S
N877       Co891   2.079       .  S
N878        N890   1.326       .  A
N878       Co887   2.085       .  S
C879        N883   1.348       .  A
C879        C910   1.462       .  S
C880        H884   1.082       .  S
N881        C892   1.340       .  A
N881       Co891   2.084       .  S
C885        N901   1.348       .  A
C885        C922   1.461       .  S
N888        C899   1.350   1_556  A
C889        C902   1.466       .  S
Co891      Cl898   2.450       .  S
C899        C917   1.466       .  S
C902        C939   1.455       .  S
N903        N920   1.327       .  A
N903       Co940   2.090       .  S
C904        N929   1.341       .  A
C904        C942   1.459       .  S
C904        H949   1.082       .  S
H905        C946   1.082       .  S
C906        N930   1.341       .  A
C906        C910   1.456       .  S
C906        H935   1.082       .  S
Co907       N925   2.079       .  S
Co907       N915   2.087       .  S
Co907       N947   2.081       .  S
Co907       N923   2.080       .  S
Co907     Cl1269   2.451       .  S
N908        C946   1.338       .  A
N908       N1233   1.320   1_545  A
N908       Co909   2.082       .  S
Co909       N912   2.084       .  S
Co909       N929   2.086       .  S
Co909       N916   2.090       .  S
Co909      Cl951   2.450       .  S
N911       N1236   1.321   1_545  A
N911        N941   1.324       .  A
N911       Co944   2.081       .  S
N912        N948   1.324       .  A
N913       C1260   1.347       .  A
N913        N923   1.324       .  A
H914        C939   1.082       .  S
N915       N1226   1.320       .  A
N915        N936   1.327       .  A
N916        N921   1.327       .  A
C917        N921   1.351   1_554  A
N918        C933   1.342       .  A
N918       N1229   1.321       .  A
N918       Co940   2.087       .  S
C919        N947   1.341       .  A
C919        C922   1.456       .  S
C919        H953   1.082       .  S
N923       N1247   1.320       .  A
N924        C950   1.338       .  A
N924       N1244   1.320       .  A
N924       Co940   2.081       .  S
N925        C939   1.338       .  A
N926       N1242   1.320   1_545  A
N926        N954   1.327       .  A
N926       Co944   2.087       .  S
H927        C950   1.082       .  S
H928        C945   1.082       .  S
N929       N1241   1.320   1_545  A
N930       Co944   2.082       .  S
N931        N943   1.324       .  A
N931       Co940   2.084       .  S
C932        N936   1.350       .  A
C932       C1264   1.455       .  S
C933        C952   1.459       .  S
C933        H937   1.082       .  S
N934        C945   1.338       .  A
N934       Co944   2.079       .  S
C938        N954   1.350   1_565  A
C938       C1268   1.455       .  S
Co940     Cl1110   2.450       .  S
N941       C1270   1.347       .  A
C942       N1231   1.347   1_545  A
C942       C1134   1.463   1_545  S
C946       C1250   1.455       .  S
C950       C1256   1.455       .  S
Cl951     Co1225   2.451   1_545  S
Cl951     Co1099   2.450   1_546  S
C952       N1259   1.347       .  A
C952       C1122   1.464       .  S
C955        N973   1.350       .  A
C955       C1097   1.464       .  S
N956        N973   1.326       .  A
N956       Co993   2.086       .  S
C957        N982   1.342       .  A
C957        C995   1.457       .  S
C957       H1002   1.082       .  S
H958        C999   1.082       .  S
C959        N983   1.342       .  A
C959        C963   1.459       .  S
C959        H988   1.082       .  S
Co960       N978   2.080       .  S
Co960       N968   2.088       .  S
Co960      N1000   2.087       .  S
Co960       N976   2.086       .  S
N961        C999   1.338       .  A
N961       Co962   2.078       .  S
Co962       N965   2.081       .  S
Co962       N982   2.083       .  S
Co962       N969   2.086       .  S
N964        N994   1.324       .  A
N964       Co997   2.087       .  S
N965       N1001   1.324       .  A
N966        N976   1.324       .  A
H967        C992   1.082       .  S
N968        N989   1.326       .  A
N969        N974   1.327       .  A
C970        N974   1.350   1_545  A
C970       C1091   1.464       .  S
N971        C986   1.342       .  A
N971       Co993   2.083       .  S
C972       N1000   1.342       .  A
C972        C975   1.459       .  S
C972       H1006   1.082       .  S
N977       C1003   1.338       .  A
N977       Co993   2.077       .  S
N978        C992   1.338       .  A
N979       N1007   1.326       .  A
N979       Co997   2.088       .  S
H980       C1003   1.082       .  S
H981        C998   1.082       .  S
N983       Co997   2.087       .  S
N984        N996   1.324       .  A
N984       Co993   2.081       .  S
C985        N989   1.350       .  A
C986       C1005   1.457       .  S
C986        H990   1.082       .  S
N987        C998   1.338       .  A
N987       Co997   2.081       .  S
C991       N1007   1.350   1_455  A
Co993     Cl1004   2.451       .  S
C995       C1023   1.465       .  S
C1005      C1008   1.465       .  S
C1008      N1026   1.349       .  A
N1009      N1026   1.326       .  A
N1009     Co1046   2.086       .  S
C1010      N1035   1.339       .  A
C1010      C1048   1.455       .  S
C1010      H1055   1.082       .  S
H1011      C1052   1.082       .  S
C1012      N1036   1.338       .  A
C1012      C1016   1.455       .  S
C1012      H1041   1.082       .  S
Co1013     N1031   2.084       .  S
Co1013     N1021   2.083       .  S
Co1013     N1053   2.079       .  S
Co1013     N1029   2.088       .  S
N1014      C1052   1.340       .  A
N1014      N1180   1.320       .  A
N1014     Co1015   2.082       .  S
Co1015     N1018   2.086       .  S
Co1015     N1035   2.082       .  S
Co1015     N1022   2.086       .  S
N1017      N1183   1.320       .  A
N1017      N1047   1.327       .  A
N1017     Co1050   2.088       .  S
N1018      N1054   1.326       .  A
N1019      C1207   1.350   1_554  A
N1019      N1029   1.327       .  A
H1020      C1045   1.082       .  S
N1021      N1173   1.320   1_554  A
N1021      N1042   1.325       .  A
N1022      N1027   1.326       .  A
C1023      N1027   1.349       .  A
N1024      C1039   1.339       .  A
N1024      N1176   1.320   1_554  A
N1024     Co1046   2.082       .  S
C1025      N1053   1.338       .  A
C1025      C1028   1.455       .  S
C1025      H1059   1.082       .  S
N1029      N1194   1.320   1_554  A
N1030      C1056   1.340       .  A
N1030      N1191   1.320   1_554  A
N1030     Co1046   2.082       .  S
N1031      C1045   1.340       .  A
N1032      N1189   1.320       .  A
N1032      N1060   1.325       .  A
N1032     Co1050   2.083       .  S
H1033      C1056   1.082       .  S
H1034      C1051   1.082       .  S
N1035      N1188   1.320       .  A
N1036     Co1050   2.079       .  S
N1037      N1049   1.326       .  A
N1037     Co1046   2.085       .  S
C1038      N1042   1.348   1_556  A
C1038      C1211   1.456       .  S
C1038      C1069   1.462       .  S
C1039      C1217   1.455       .  S
C1039      H1043   1.082       .  S
N1040      C1051   1.340       .  A
N1040     Co1050   2.084       .  S
C1044      N1060   1.348       .  A
C1044      C1215   1.456       .  S
C1044      C1081   1.461       .  S
Co1046    Cl1216   2.451   1_554  S
N1047      C1058   1.350       .  A
C1048      N1178   1.350       .  A
C1048      C1061   1.466       .  S
Co1050    Cl1057   2.450       .  S
C1052      C1197   1.456       .  S
C1056      C1203   1.456   1_554  S
Cl1057    Co1205   2.451       .  S
C1058      C1198   1.455       .  S
C1058      C1076   1.466       .  S
C1061      N1238   1.351       .  A
C1061      C1098   1.455       .  S
N1062      N1079   1.327       .  A
N1062      N1243   1.320   1_554  A
N1062     Co1099   2.090       .  S
C1063      N1088   1.341       .  A
C1063      C1101   1.459       .  S
C1063      H1108   1.082       .  S
H1064      C1105   1.082       .  S
C1065      N1089   1.341       .  A
C1065      C1069   1.456   1_554  S
C1065      H1094   1.082       .  S
Co1066     N1084   2.079       .  S
Co1066     N1074   2.087       .  S
Co1066     N1106   2.081       .  S
Co1066     N1082   2.080       .  S
N1067      C1105   1.338       .  A
N1067     Co1068   2.082       .  S
Co1068     N1071   2.084       .  S
Co1068     N1088   2.086       .  S
Co1068     N1075   2.090       .  S
Co1068    Cl1110   2.450       .  S
C1069      N1266   1.348       .  A
N1070      N1100   1.324       .  A
N1070     Co1103   2.081       .  S
N1071      N1248   1.320       .  A
N1071      N1107   1.324       .  A
N1072      N1082   1.324       .  A
H1073      C1098   1.082       .  S
N1074      N1095   1.327       .  A
N1075      N1252   1.320       .  A
N1075      N1080   1.327       .  A
C1076      N1080   1.351       .  A
C1076      C1263   1.455       .  S
N1077      C1092   1.342       .  A
N1077     Co1099   2.087       .  S
C1078      N1106   1.341       .  A
C1078      C1081   1.456       .  S
C1078      H1112   1.082       .  S
N1079      C1220   1.351   1_554  A
C1081      N1261   1.348       .  A
N1083      C1109   1.338       .  A
N1083     Co1099   2.081       .  S
N1084      C1098   1.338       .  A
N1084      N1221   1.320       .  A
N1085      N1113   1.327       .  A
N1085     Co1103   2.087       .  S
H1086      C1109   1.082       .  S
H1087      C1104   1.082       .  S
N1089      N1230   1.320   1_554  A
N1089     Co1103   2.082       .  S
N1090      N1102   1.324       .  A
N1090      N1265   1.320   1_554  A
N1090     Co1099   2.084       .  S
C1091      N1095   1.350   1_545  A
C1092      C1111   1.459   1_565  S
C1092      H1096   1.082       .  S
N1093      C1104   1.338       .  A
N1093      N1234   1.320   1_554  A
N1093     Co1103   2.079       .  S
C1097      N1113   1.350       .  A
N1102      C1240   1.348   1_554  A
Co1103    Cl1269   2.451   1_554  S
C1104      C1235   1.455       .  S
N1106      N1249   1.320       .  A
N1107      C1228   1.348       .  A
Cl1110    Co1262   2.451       .  S
C1114      N1132   1.350       .  A
C1114      C1256   1.464       .  S
N1115      N1132   1.326       .  A
N1115     Co1152   2.086       .  S
C1116      N1141   1.342       .  A
C1116      C1154   1.457       .  S
C1116      H1161   1.082       .  S
H1117      C1158   1.082       .  S
C1118      N1142   1.342       .  A
C1118      C1122   1.459       .  S
C1118      H1147   1.082       .  S
Co1119     N1137   2.080       .  S
Co1119     N1127   2.088       .  S
Co1119     N1159   2.087       .  S
Co1119     N1135   2.086       .  S
N1120      C1158   1.338       .  A
N1120     Co1121   2.078       .  S
Co1121     N1124   2.081       .  S
Co1121     N1141   2.083       .  S
Co1121     N1128   2.086       .  S
N1123      N1153   1.324       .  A
N1123     Co1156   2.087       .  S
N1124      N1160   1.324       .  A
N1125      N1135   1.324       .  A
H1126      C1151   1.082       .  S
N1127      N1148   1.326       .  A
N1128      N1133   1.327       .  A
C1129      N1133   1.350   1_545  A
C1129      C1250   1.464       .  S
N1130      C1145   1.342       .  A
N1130     Co1152   2.083       .  S
C1131      N1159   1.342       .  A
C1131      C1134   1.459       .  S
C1131      H1165   1.082       .  S
N1136      C1162   1.338       .  A
N1136     Co1152   2.077       .  S
N1137      C1151   1.338       .  A
N1138      N1166   1.326       .  A
N1138     Co1156   2.088       .  S
H1139      C1162   1.082       .  S
H1140      C1157   1.082       .  S
N1142     Co1156   2.087       .  S
N1143      N1155   1.324       .  A
N1143     Co1152   2.081       .  S
C1144      N1148   1.350       .  A
C1145      C1164   1.457       .  S
C1145      H1149   1.082       .  S
N1146      C1157   1.338       .  A
N1146     Co1156   2.081       .  S
C1150      N1166   1.350   1_455  A
Co1152    Cl1163   2.451       .  S
C1154      C1182   1.465       .  S
C1164      C1167   1.465       .  S
C1167      N1185   1.349       .  A
N1168      N1185   1.326       .  A
N1168     Co1205   2.086       .  S
C1169      N1194   1.339       .  A
C1169      C1207   1.455       .  S
C1169      H1214   1.082       .  S
H1170      C1211   1.082       .  S
C1171      N1195   1.338       .  A
C1171      C1175   1.455       .  S
C1171      H1200   1.082       .  S
Co1172     N1190   2.084       .  S
Co1172     N1180   2.083       .  S
Co1172     N1212   2.079       .  S
Co1172     N1188   2.088       .  S
N1173      C1211   1.340       .  A
N1173     Co1174   2.082       .  S
Co1174     N1177   2.086       .  S
Co1174     N1194   2.082       .  S
Co1174     N1181   2.086       .  S
N1176      N1206   1.327       .  A
N1176     Co1209   2.088       .  S
N1177      N1213   1.326       .  A
N1178      N1188   1.327       .  A
H1179      C1204   1.082       .  S
N1180      N1201   1.325       .  A
N1181      N1186   1.326       .  A
C1182      N1186   1.349       .  A
N1183      C1198   1.339       .  A
N1183     Co1205   2.082       .  S
C1184      N1212   1.338       .  A
C1184      C1187   1.455       .  S
C1184      H1218   1.082       .  S
N1189      C1215   1.340       .  A
N1189     Co1205   2.082       .  S
N1190      C1204   1.340       .  A
N1191      N1219   1.325       .  A
N1191     Co1209   2.083       .  S
H1192      C1215   1.082       .  S
H1193      C1210   1.082       .  S
N1195     Co1209   2.079       .  S
N1196      N1208   1.326       .  A
N1196     Co1205   2.085       .  S
C1197      N1201   1.348       .  A
C1197      C1228   1.462       .  S
C1198      H1202   1.082       .  S
N1199      C1210   1.340       .  A
N1199     Co1209   2.084       .  S
C1203      N1219   1.348       .  A
C1203      C1240   1.461       .  S
N1206      C1217   1.350   1_556  A
C1207      C1220   1.466       .  S
Co1209    Cl1216   2.450       .  S
C1217      C1235   1.466       .  S
C1220      C1257   1.455       .  S
N1221      N1238   1.327       .  A
N1221     Co1258   2.090       .  S
C1222      N1247   1.341       .  A
C1222      C1260   1.459       .  S
C1222      H1267   1.082       .  S
H1223      C1264   1.082       .  S
C1224      N1248   1.341       .  A
C1224      C1228   1.456       .  S
C1224      H1253   1.082       .  S
Co1225     N1243   2.079       .  S
Co1225     N1233   2.087       .  S
Co1225     N1265   2.081       .  S
Co1225     N1241   2.080       .  S
N1226      C1264   1.338       .  A
N1226     Co1227   2.082       .  S
Co1227     N1230   2.084       .  S
Co1227     N1247   2.086       .  S
Co1227     N1234   2.090       .  S
Co1227    Cl1269   2.450       .  S
N1229      N1259   1.324       .  A
N1229     Co1262   2.081       .  S
N1230      N1266   1.324       .  A
N1231      N1241   1.324       .  A
H1232      C1257   1.082       .  S
N1233      N1254   1.327       .  A
N1234      N1239   1.327       .  A
C1235      N1239   1.351   1_554  A
N1236      C1251   1.342       .  A
N1236     Co1258   2.087       .  S
C1237      N1265   1.341       .  A
C1237      C1240   1.456       .  S
C1237      H1271   1.082       .  S
N1242      C1268   1.338       .  A
N1242     Co1258   2.081       .  S
N1243      C1257   1.338       .  A
N1244      N1272   1.327       .  A
N1244     Co1262   2.087       .  S
H1245      C1268   1.082       .  S
H1246      C1263   1.082       .  S
N1248     Co1262   2.082       .  S
N1249      N1261   1.324       .  A
N1249     Co1258   2.084       .  S
C1250      N1254   1.350   1_545  A
C1251      C1270   1.459   1_565  S
C1251      H1255   1.082       .  S
N1252      C1263   1.338       .  A
N1252     Co1262   2.079       .  S
C1256      N1272   1.350       .  A
