geometry optimzed in LAMMPS
_audit_creation_date              2020-11-30 
_audit_creation_method            'lammps2cif' 
_symmetry_space_group_name_H-M    'P1' 
_symmetry_Int_Tables_number       1 
_symmetry_cell_setting            triclinic 
loop_ 
_symmetry_equiv_pos_as_xyz 
  x,y,z 
_cell_length_a                    28.670376247556273 
_cell_length_b                    28.767283347354685 
_cell_length_c                    28.761048139995733 
_cell_angle_alpha                 90.06190704045147 
_cell_angle_beta                  90.04811462166091 
_cell_angle_gamma                 90.09529301414813 
loop_ 
_atom_site_label 
_atom_site_type_symbol 
_atom_site_fract_x 
_atom_site_fract_y 
_atom_site_fract_z 
_atom_site_charge 
O1          O  0.30053497  0.53505017  0.21538350    -0.80960
C2          C  0.10727613  0.49517500  0.19619060     0.98390
O3          O  0.12849352  0.53189645  0.18529020    -0.70080
O4          O  0.17548649  0.57311123  0.25241985    -0.73670
Al5        Al  0.19107328  0.55249538  0.19074214     1.48980
C6          C  0.20318499  0.57406816  0.28660817     0.93640
O7          O  0.22544888  0.45988669  0.29458632    -0.79890
O8          O  0.25212503  0.42214802  0.16809708    -0.73450
Al9        Al  0.26017577  0.49749590  0.25232540     1.90120
O10         O  0.19566792  0.41101127  0.24438831    -0.72520
O11         O  0.18448102  0.46594234  0.12543277    -0.72370
O12         O  0.12971743  0.45831334  0.20365766    -0.78030
O13         O  0.20373476  0.53961466  0.12696868    -0.76240
O14         O  0.21451483  0.49804325  0.21005753    -1.12370
O15         O  0.24852196  0.58531569  0.19196975    -0.71560
C16         C  0.29053197  0.57415184  0.19818930     0.99150
C17         C  0.20523519  0.42181318  0.28580268     0.95550
Al18       Al  0.19234802  0.44429163  0.18735581     1.55560
O19         O  0.23928948  0.54938988  0.28623565    -0.76190
C20         C  0.19503589  0.50293190  0.10444738     0.99720
C21         C  0.28855055  0.42089339  0.19265969     0.94600
O22         O  0.29206050  0.44562135  0.22847471    -0.81510
O23         O  0.71021914  0.46159025  0.20844972    -0.80960
C24         C  0.90508395  0.49853247  0.19844895     0.98390
O25         O  0.88347478  0.46243731  0.18631591    -0.70080
O26         O  0.83325902  0.42119217  0.25154690    -0.73670
Al27       Al  0.82024062  0.44309905  0.18970220     1.48980
C28         C  0.80281744  0.41894634  0.28324985     0.93640
O29         O  0.78075747  0.53397126  0.29361804    -0.79890
O30         O  0.76356233  0.57697072  0.16905485    -0.73450
Al31       Al  0.74879428  0.49772828  0.24857758     1.90120
O32         O  0.81741443  0.58278632  0.24769260    -0.72520
O33         O  0.83046658  0.53119897  0.12705141    -0.72370
O34         O  0.88309739  0.53530558  0.20716626    -0.78030
O35         O  0.80949720  0.45790315  0.12624446    -0.76240
O36         O  0.79693767  0.49765000  0.20930325    -1.12370
O37         O  0.76246534  0.41038719  0.18832792    -0.71560
C38         C  0.72035060  0.42204342  0.19244217     0.99150
C39         C  0.80280666  0.57147177  0.28740313     0.95550
Al40       Al  0.82161127  0.55151506  0.18948331     1.55560
O41         O  0.76753310  0.44482521  0.28202946    -0.76190
C42         C  0.81935132  0.49494198  0.10485808     0.99720
C43         C  0.72556184  0.57752138  0.19103425     0.94600
O44         O  0.71879412  0.55038180  0.22442624    -0.81510
O45         O  0.46763579  0.78119063  0.29457589    -0.80960
C46         C  0.51046316  0.80934421  0.10436346     0.98390
O47         O  0.47309472  0.81906293  0.12508259    -0.70080
O48         O  0.43037579  0.75289338  0.16951396    -0.73670
Al49       Al  0.45196065  0.81283951  0.18700649     1.48980
C50         C  0.43004857  0.71663561  0.19393918     0.93640
O51         O  0.54607484  0.70743594  0.21759376    -0.79890
O52         O  0.58119972  0.83313506  0.25059948    -0.73450
Al53       Al  0.50678189  0.74730306  0.25325834     1.90120
O54         O  0.59471335  0.75982146  0.19162690    -0.72520
O55         O  0.53928244  0.87820095  0.18421694    -0.72370
O56         O  0.54760544  0.80245685  0.12677765    -0.78030
O57         O  0.46482435  0.87589816  0.20097736    -0.76240
O58         O  0.50640720  0.79216478  0.21008255    -1.12370
O59         O  0.41907155  0.81075743  0.24406302    -0.71560
C60         C  0.42966004  0.80137596  0.28547852     0.99150
C61         C  0.58460895  0.71791657  0.19915118     0.95550
Al62       Al  0.56063592  0.81625067  0.19001263     1.55560
O63         O  0.45581567  0.71319320  0.22910939    -0.76190
C64         C  0.50168446  0.89845519  0.19368537     0.99720
C65         C  0.58208771  0.80735868  0.28597587     0.94600
O66         O  0.55777099  0.77098605  0.28770012    -0.81510
O67         O  0.54478414  0.21238844  0.29330170    -0.80960
C68         C  0.50190681  0.18696207  0.10244342     0.98390
O69         O  0.53764653  0.17276633  0.12354220    -0.70080
O70         O  0.58154943  0.24122657  0.16654596    -0.73670
Al71       Al  0.55933719  0.18165636  0.18570802     1.48980
C72         C  0.58310769  0.27738196  0.19148680     0.93640
O73         O  0.46904997  0.29002948  0.21722389    -0.79890
O74         O  0.42934062  0.16474959  0.24663969    -0.73450
Al75       Al  0.50682116  0.24816944  0.25223263     1.90120
O76         O  0.41873597  0.23994119  0.19010493    -0.72520
O77         O  0.47146772  0.12036333  0.17821103    -0.72370
O78         O  0.46601371  0.19930877  0.12437526    -0.78030
O79         O  0.54380518  0.11975728  0.20278530    -0.76240
O80         O  0.50579812  0.20433027  0.20834455    -1.12370
O81         O  0.59362984  0.18510942  0.24202012    -0.71560
C82         C  0.58323182  0.19341490  0.28367695     0.99150
C83         C  0.43031363  0.28131423  0.19825589     0.95550
Al84       Al  0.45131316  0.18291300  0.18667803     1.55560
O85         O  0.55894650  0.28058014  0.22793197    -0.76190
C86         C  0.50707911  0.09836851  0.19146207     0.99720
C87         C  0.42891396  0.18988465  0.28269480     0.94600
O88         O  0.45478651  0.22519218  0.28580740    -0.81510
O89         O  0.54354029  0.29120503  0.78796620    -0.80960
C90         C  0.50267339  0.10008942  0.81364876     0.98390
O91         O  0.53880415  0.12151231  0.82671195    -0.70080
O92         O  0.58217780  0.16556271  0.75989945    -0.73670
Al93       Al  0.55970230  0.18401615  0.81930097     1.48980
C94         C  0.58317784  0.19005558  0.72357948     0.93640
O95         O  0.46825279  0.21371209  0.71159583    -0.79890
O96         O  0.42996020  0.24381431  0.83754994    -0.73450
Al97       Al  0.50584067  0.24943260  0.75285159     1.90120
O98         O  0.41799900  0.18728401  0.76197259    -0.72520
O99         O  0.47223407  0.17530937  0.88153056    -0.72370
O100        O  0.46605873  0.12184461  0.80305744    -0.78030
O101        O  0.54451169  0.20027541  0.88154195    -0.76240
O102        O  0.50571844  0.20585698  0.79698891    -1.12370
O103        O  0.59287633  0.24107522  0.81642876    -0.71560
C104        C  0.58198588  0.28243892  0.80734775     0.99150
C105        C  0.42938856  0.19521007  0.72044784     0.95550
Al106      Al  0.45148278  0.18397757  0.81908927     1.55560
O107        O  0.55803972  0.22574654  0.71990539    -0.76190
C108        C  0.50817567  0.18845105  0.90306040     0.99720
C109        C  0.42884566  0.27965858  0.81228948     0.94600
O110        O  0.45364482  0.28252262  0.77623364    -0.81510
O111        O  0.71086357  0.20505249  0.54039845    -0.80960
C112        C  0.90528324  0.19332278  0.50174155     0.98390
O113        O  0.88415247  0.18265515  0.53848783    -0.70080
O114        O  0.83376277  0.24668313  0.58062383    -0.73670
Al115      Al  0.82103700  0.18494112  0.55798260     1.48980
C116        C  0.80405355  0.27905683  0.58216374     0.93640
O117        O  0.78105841  0.28886670  0.46669690    -0.79890
O118        O  0.76249253  0.16441442  0.42440001    -0.73450
Al119      Al  0.74943196  0.24430074  0.50361134     1.90120
O120        O  0.81725995  0.24233340  0.41810272    -0.72520
O121        O  0.82957034  0.12198056  0.46915944    -0.72370
O122        O  0.88320302  0.20079559  0.46470128    -0.78030
O123        O  0.81092488  0.12112512  0.54292166    -0.76240
O124        O  0.79733474  0.20456368  0.50346978    -1.12370
O125        O  0.76335914  0.18301615  0.59062758    -0.71560
C126        C  0.72120339  0.18846278  0.57961250     0.99150
C127        C  0.80272264  0.28209873  0.42916108     0.95550
Al128      Al  0.82114841  0.18425007  0.44926706     1.55560
O129        O  0.76907442  0.27805723  0.55587210    -0.76190
C130        C  0.81977451  0.09971654  0.50557745     0.99720
C131        C  0.72458052  0.18651233  0.42435312     0.94600
O132        O  0.71850211  0.21999053  0.45155395    -0.81510
O133        O  0.29919298  0.21468794  0.46435514    -0.80960
C134        C  0.10705170  0.19010573  0.50625962     0.98390
O135        O  0.12856528  0.17709211  0.47031715    -0.70080
O136        O  0.17350496  0.24378010  0.42645469    -0.73670
Al137      Al  0.19100711  0.18371842  0.44908975     1.48980
C138        C  0.19866468  0.27987031  0.42586381     0.93640
O139        O  0.22248732  0.29115632  0.54139722    -0.79890
O140        O  0.25216281  0.16406257  0.57774026    -0.73450
Al141      Al  0.25774845  0.24964233  0.50289393     1.90120
O142        O  0.19702230  0.23933984  0.59088002    -0.72520
O143        O  0.18222784  0.12129519  0.53601074    -0.72370
O144        O  0.12935330  0.20046067  0.54272300    -0.78030
O145        O  0.20600471  0.12078265  0.46401470    -0.76240
O146        O  0.21367887  0.20564835  0.50285504    -1.12370
O147        O  0.24804128  0.18583108  0.41598989    -0.71560
C148        C  0.28969708  0.19523086  0.42612047     0.99150
C149        C  0.20594962  0.28086006  0.58067232     0.95550
Al150      Al  0.19196571  0.18329243  0.55684109     1.55560
O151        O  0.23413903  0.28292037  0.45146596    -0.76190
C152        C  0.19466600  0.09908010  0.50040841     0.99720
C153        C  0.28809156  0.18956057  0.57921656     0.94600
O154        O  0.29099925  0.22562221  0.55451971    -0.81510
O155        O  0.29957564  0.46129451  0.79149158    -0.80960
C156        C  0.10655703  0.50095193  0.81228121     0.98390
O157        O  0.12840654  0.46545171  0.82563347    -0.70080
O158        O  0.17354401  0.42145689  0.75910643    -0.73670
Al159      Al  0.19094548  0.44481045  0.81896191     1.48980
C160        C  0.20080018  0.41830528  0.72481591     0.93640
O161        O  0.22348552  0.53226516  0.71008140    -0.79890
O162        O  0.25064977  0.57573638  0.83473194    -0.73450
Al163      Al  0.25856123  0.49690767  0.75350461     1.90120
O164        O  0.19433884  0.58361868  0.75804654    -0.72520
O165        O  0.18292008  0.53359091  0.87977436    -0.72370
O166        O  0.12846570  0.53711660  0.80063934    -0.78030
O167        O  0.20594366  0.46118245  0.88116137    -0.76240
O168        O  0.21350120  0.49816531  0.79627676    -1.12370
O169        O  0.24824560  0.41165578  0.81752423    -0.71560
C170        C  0.29009279  0.42269604  0.81004118     0.99150
C171        C  0.20412039  0.57097207  0.71721505     0.95550
Al172      Al  0.19097505  0.55261018  0.81652234     1.55560
O173        O  0.23687809  0.44308673  0.72214010    -0.76190
C174        C  0.19535686  0.49809686  0.90236668     0.99720
C175        C  0.28703439  0.57627268  0.81009835     0.94600
O176        O  0.29062525  0.55018074  0.77516402    -0.81510
O177        O  0.29989226  0.78966832  0.54176535    -0.80960
C178        C  0.10655688  0.80525195  0.50024164     0.98390
O179        O  0.12729066  0.81529319  0.53740527    -0.70080
O180        O  0.17522622  0.75012358  0.57893537    -0.73670
Al181      Al  0.18982075  0.81175080  0.55797984     1.48980
C182        C  0.20319210  0.71630403  0.58029434     0.93640
O183        O  0.22785531  0.70751217  0.46763631    -0.79890
O184        O  0.25141204  0.83171363  0.42587957    -0.73450
Al185      Al  0.26087668  0.75109984  0.50461981     1.90120
O186        O  0.19478666  0.75478325  0.41792042    -0.72520
O187        O  0.18524610  0.87585039  0.46943475    -0.72370
O188        O  0.12905431  0.79840038  0.46332924    -0.78030
O189        O  0.20098470  0.87556483  0.54417083    -0.76240
O190        O  0.21413769  0.79217974  0.50380891    -1.12370
O191        O  0.24717397  0.81238920  0.59155529    -0.71560
C192        C  0.28939926  0.80681770  0.58074741     0.99150
C193        C  0.20671294  0.71426103  0.42974296     0.95550
Al194      Al  0.19197605  0.81330463  0.44926312     1.55560
O195        O  0.24009368  0.71736017  0.55679726    -0.76190
C196        C  0.19399267  0.89732315  0.50668431     0.99720
C197        C  0.28851074  0.80840423  0.42598368     0.94600
O198        O  0.29304676  0.77434369  0.45273416    -0.81510
O199        O  0.71082035  0.78662233  0.46882491    -0.80960
C200        C  0.90480079  0.80611291  0.50506468     0.98390
O201        O  0.88285551  0.81574620  0.46841007    -0.70080
O202        O  0.83380451  0.74972082  0.42680288    -0.73670
Al203      Al  0.81992346  0.81155371  0.44902351     1.48980
C204        C  0.80513790  0.71628839  0.42656465     0.93640
O205        O  0.78709884  0.70791919  0.54351358    -0.79890
O206        O  0.76083273  0.83534213  0.57998317    -0.73450
Al207      Al  0.75187244  0.75008339  0.50600621     1.90120
O208        O  0.81673895  0.75937788  0.59133608    -0.72520
O209        O  0.82866447  0.87702333  0.53574059    -0.72370
O210        O  0.88307907  0.79902258  0.54255881    -0.78030
O211        O  0.80876936  0.87561324  0.46231860    -0.76240
O212        O  0.79753445  0.79240473  0.50412449    -1.12370
O213        O  0.76168372  0.81145738  0.41796801    -0.71560
C214        C  0.71997556  0.80458549  0.42982526     0.99150
C215        C  0.80622764  0.71794933  0.58180777     0.95550
Al216      Al  0.82046965  0.81557824  0.55743647     1.55560
O217        O  0.77144796  0.71620672  0.45428871    -0.76190
C218        C  0.81796776  0.89800094  0.49894292     0.99720
C219        C  0.72445703  0.81067268  0.58194510     0.94600
O220        O  0.72096204  0.77431330  0.55808395    -0.81510
O221        O  0.54343350  0.78559392  0.71136657    -0.80960
C222        C  0.50472495  0.80912693  0.90331549     0.98390
O223        O  0.54000875  0.82289715  0.88120924    -0.70080
O224        O  0.58264145  0.75564015  0.83658289    -0.73670
Al225      Al  0.56017971  0.81532449  0.81880795     1.48980
C226        C  0.58344727  0.71963065  0.81147378     0.93640
O227        O  0.46813354  0.70758468  0.78734592    -0.79890
O228        O  0.42904888  0.83325889  0.76066143    -0.73450
Al229      Al  0.50586575  0.74966104  0.75254616     1.90120
O230        O  0.41910661  0.75754114  0.81660474    -0.72520
O231        O  0.47276041  0.87691723  0.82813816    -0.72370
O232        O  0.46806479  0.79796019  0.88176927    -0.78030
O233        O  0.54469716  0.87753180  0.80320677    -0.76240
O234        O  0.50602876  0.79304400  0.79695638    -1.12370
O235        O  0.59312537  0.81290210  0.76190447    -0.71560
C236        C  0.58190459  0.80489992  0.72041956     0.99150
C237        C  0.42978488  0.71626961  0.80695050     0.95550
Al238      Al  0.45214472  0.81453229  0.81986505     1.55560
O239        O  0.55813820  0.71652924  0.77573574    -0.76190
C240        C  0.50819171  0.89907604  0.81461865     0.99720
C241        C  0.42813109  0.80897212  0.72409967     0.94600
O242        O  0.45361476  0.77356468  0.72000342    -0.81510
O243        O  0.71292648  0.53843600  0.79068611    -0.80960
C244        C  0.90529989  0.49674867  0.81188972     0.98390
O245        O  0.88443810  0.53338878  0.82363619    -0.70080
O246        O  0.83772195  0.57746360  0.75944779    -0.73670
Al247      Al  0.82165369  0.55398148  0.81906645     1.48980
C248        C  0.81163830  0.57904540  0.72423182     0.93640
O249        O  0.78715128  0.46422737  0.71137362    -0.79890
O250        O  0.76070911  0.42308318  0.83587185    -0.73450
Al251      Al  0.75336987  0.50126986  0.75395163     1.90120
O252        O  0.81734905  0.41377297  0.75984328    -0.72520
O253        O  0.82841616  0.46502736  0.88067939    -0.72370
O254        O  0.88312446  0.46004690  0.80284216    -0.78030
O255        O  0.80836298  0.53828347  0.88173546    -0.76240
O256        O  0.79859432  0.50027128  0.79687719    -1.12370
O257        O  0.76419878  0.58699707  0.81887613    -0.71560
C258        C  0.72242100  0.57653740  0.81019053     0.99150
C259        C  0.80598760  0.42550629  0.71923873     0.95550
Al260      Al  0.82056684  0.44562151  0.81789560     1.55560
O261        O  0.77611974  0.55356815  0.72103620    -0.76190
C262        C  0.81768059  0.50116174  0.90299458     0.99720
C263        C  0.72410521  0.42293858  0.81154659     0.94600
O264        O  0.72035627  0.44924588  0.77686915    -0.81510
C265        C  0.60411420  0.63535323  0.81013364     0.24430
C266        C  0.61626019  0.68138525  0.82140471    -0.23680
C267        C  0.66206202  0.69118845  0.83563680     0.19340
C268        C  0.69608874  0.65638533  0.83484889     0.24370
C269        C  0.68486801  0.61086466  0.81995064    -0.23620
C270        C  0.63792458  0.60037494  0.80968242     0.19270
F271        F  0.62486677  0.55676073  0.79704442    -0.13580
F272        F  0.55965742  0.62452847  0.79782598    -0.15940
F273        F  0.74058471  0.66829484  0.84592002    -0.15950
F274        F  0.67494580  0.73534723  0.84645456    -0.13580
C275        C  0.80929997  0.69464318  0.66512638     0.24430
C276        C  0.81364571  0.68213465  0.61789258    -0.23680
C277        C  0.82228524  0.63539793  0.60634276     0.19340
C278        C  0.82471005  0.60160035  0.64139281     0.24370
C279        C  0.81914709  0.61429628  0.68824346    -0.23620
C280        C  0.81218481  0.66102855  0.69987562     0.19270
F281        F  0.80422888  0.67356099  0.74473299    -0.13580
F282        F  0.79882377  0.73896284  0.67765475    -0.15940
F283        F  0.83141239  0.55637613  0.62967162    -0.15950
F284        F  0.82779104  0.62243177  0.56128641    -0.13580
C285        C  0.66055219  0.83361291  0.69369367     0.24430
C286        C  0.61571124  0.81598770  0.68282138    -0.23680
C287        C  0.60541580  0.80526273  0.63616958     0.19340
C288        C  0.64018084  0.80781949  0.60228732     0.24370
C289        C  0.68591831  0.82124720  0.61416441    -0.23620
C290        C  0.69526873  0.83615662  0.65962241     0.19270
F291        F  0.73908521  0.84907886  0.67217056    -0.13580
F292        F  0.67202719  0.84574544  0.73789019    -0.15940
F293        F  0.62971942  0.79466875  0.55810912    -0.15950
F294        F  0.56245263  0.78985027  0.62349970    -0.13580
C295        C  0.02958255  0.82100137  0.46304100     0.24430
C296        C  0.05517160  0.80271675  0.50030812    -0.23680
C297        C  0.03123690  0.78446770  0.53889167     0.19340
C298        C  0.98243396  0.78486444  0.54036145     0.24370
C299        C  0.95657741  0.80403750  0.50340682    -0.23620
C300        C  0.98089824  0.82195770  0.46460295     0.19270
F301        F  0.95781949  0.84187268  0.42851947    -0.13580
F302        F  0.05177489  0.84006787  0.42595216    -0.15940
F303        F  0.96066037  0.76628136  0.57791857    -0.15950
F304        F  0.05516583  0.76571529  0.57505401    -0.13580
C305        C  0.37385031  0.81078822  0.60473412     0.24430
C306        C  0.32636532  0.81720733  0.61564496    -0.23680
C307        C  0.31431536  0.82866408  0.66192783     0.19340
C308        C  0.34831588  0.82978240  0.69682819     0.24370
C309        C  0.39490180  0.81933188  0.68635134    -0.23620
C310        C  0.40765094  0.81149430  0.63982585     0.19270
F311        F  0.45277464  0.80265012  0.62859565    -0.13580
F312        F  0.38755889  0.80159196  0.56050003    -0.15940
F313        F  0.33489423  0.83687438  0.74155095    -0.15950
F314        F  0.26920787  0.83579414  0.67436495    -0.13580
C315        C  0.98043296  0.53151427  0.78542640     0.24430
C316        C  0.95647009  0.49685440  0.81011966    -0.23680
C317        C  0.98168899  0.46352890  0.83509450     0.19340
C318        C  0.03035531  0.46504533  0.83595035     0.24370
C319        C  0.05483622  0.49969064  0.81114002    -0.23620
C320        C  0.02924395  0.53276500  0.78557582     0.19270
F321        F  0.05130802  0.56597181  0.76024538    -0.13580
F322        F  0.95648650  0.56366902  0.76048269    -0.15940
F323        F  0.05330739  0.43327126  0.86227500    -0.15950
F324        F  0.95906178  0.43064350  0.86038234    -0.13580
C325        C  0.31515575  0.65521555  0.83306739     0.24430
C326        C  0.32521312  0.60950325  0.81943435    -0.23680
C327        C  0.37139493  0.59776348  0.80784505     0.19340
C328        C  0.40621155  0.63183881  0.80649879     0.24370
C329        C  0.39545281  0.67857149  0.81636936    -0.23620
C330        C  0.34980903  0.68945255  0.83152043     0.19270
F331        F  0.33759181  0.73377526  0.84223322    -0.13580
F332        F  0.27086874  0.66773982  0.84409804    -0.15940
F333        F  0.44993923  0.61918844  0.79363333    -0.15950
F334        F  0.38250271  0.55339836  0.79611295    -0.13580
C335        C  0.22115649  0.63441739  0.60348836     0.24430
C336        C  0.19524942  0.67545931  0.61085588    -0.23680
C337        C  0.16624764  0.67819518  0.65016035     0.19340
C338        C  0.16663416  0.64263459  0.68348735     0.24370
C339        C  0.19594647  0.60360691  0.67806034    -0.23620
C340        C  0.22157550  0.59905920  0.63665094     0.19270
F341        F  0.24975338  0.56185309  0.62937465    -0.13580
F342        F  0.24793641  0.62908912  0.56490441    -0.15940
F343        F  0.13956464  0.64732474  0.72191728    -0.15950
F344        F  0.13966019  0.71642935  0.65789884    -0.13580
C345        C  0.17798151  0.02337587  0.54141468     0.24430
C346        C  0.19534053  0.04726917  0.50206729    -0.23680
C347        C  0.21329791  0.02094316  0.46482572     0.19340
C348        C  0.21320610  0.97227471  0.46660955     0.24370
C349        C  0.19565623  0.94874556  0.50579086    -0.23620
C350        C  0.17843472  0.97478055  0.54326873     0.19270
F351        F  0.16037294  0.95314642  0.58115845    -0.13580
F352        F  0.15971799  0.04680337  0.57812949    -0.15940
F353        F  0.23118311  0.94810126  0.43022928    -0.15950
F354        F  0.23129033  0.04210265  0.42665025    -0.13580
C355        C  0.17359798  0.39071788  0.64667471     0.24430
C356        C  0.19477974  0.38171901  0.68982776    -0.23680
C357        C  0.21855804  0.33978315  0.69667818     0.19340
C358        C  0.22140573  0.30716589  0.66097996     0.24370
C359        C  0.20098265  0.31612445  0.61745888    -0.23620
C360        C  0.17670026  0.35795986  0.61048856     0.19270
F361        F  0.15602890  0.36688749  0.56898166    -0.13580
F362        F  0.15120591  0.43159219  0.63931882    -0.15940
F363        F  0.24634648  0.26768495  0.66813431    -0.15950
F364        F  0.24124089  0.33153803  0.73732673    -0.13580
C365        C  0.83021512  0.02402033  0.46229469     0.24430
C366        C  0.81858828  0.04793568  0.50371655    -0.23680
C367        C  0.80528639  0.02166778  0.54284943     0.19340
C368        C  0.80446910  0.97308354  0.54087682     0.24370
C369        C  0.81659554  0.94944256  0.49970893    -0.23620
C370        C  0.82897926  0.97541116  0.46034703     0.19270
F371        F  0.84150519  0.95373653  0.42030431    -0.13580
F372        F  0.84338704  0.04742848  0.42348114    -0.15940
F373        F  0.79101708  0.94912364  0.57927897    -0.15950
F374        F  0.79283161  0.04277596  0.58321379    -0.13580
C375        C  0.98093342  0.21389853  0.54018975     0.24430
C376        C  0.95666180  0.19518473  0.50200947    -0.23680
C377        C  0.98185107  0.17553645  0.46517540     0.19340
C378        C  0.03048790  0.17385363  0.46667058     0.24370
C379        C  0.05523871  0.19242640  0.50496633    -0.23620
C380        C  0.02976392  0.21288744  0.54155204     0.19270
F381        F  0.05191384  0.23211036  0.57864040    -0.13580
F382        F  0.95732105  0.23372908  0.57597352    -0.15940
F383        F  0.05306351  0.15284563  0.43088853    -0.15950
F384        F  0.95924547  0.15588143  0.42855934    -0.13580
C385        C  0.84964576  0.36603625  0.67191256     0.24430
C386        C  0.80869071  0.39107299  0.68160737    -0.23680
C387        C  0.76733019  0.37950007  0.65852814     0.19340
C388        C  0.76635746  0.34328666  0.62658627     0.24370
C389        C  0.80722693  0.31798413  0.61599388    -0.23620
C390        C  0.84908310  0.32992833  0.63885818     0.19270
F391        F  0.88920408  0.30683544  0.62933457    -0.13580
F392        F  0.88999558  0.37669505  0.69425930    -0.15940
F393        F  0.72442813  0.33181171  0.60770421    -0.15950
F394        F  0.72678196  0.40145854  0.66919884    -0.13580
C395        C  0.46428143  0.02320579  0.82582306     0.24430
C396        C  0.50341505  0.04890970  0.81184992    -0.23680
C397        C  0.54388999  0.02532470  0.79769628     0.19340
C398        C  0.54539108  0.97673752  0.79790159     0.24370
C399        C  0.50650945  0.95069149  0.81288714    -0.23620
C400        C  0.46578705  0.97469310  0.82660129     0.19270
F401        F  0.42732185  0.95148411  0.84148027    -0.13580
F402        F  0.42502463  0.04510072  0.84051979    -0.15940
F403        F  0.58506318  0.95542447  0.78350115    -0.15950
F404        F  0.58189190  0.04937197  0.78293607    -0.13580
C405        C  0.40844824  0.36397193  0.81165258     0.24430
C406        C  0.39608828  0.31787284  0.82227676    -0.23680
C407        C  0.35006582  0.30793811  0.83547257     0.18740
C408        C  0.31608411  0.34273055  0.83436254     0.24370
C409        C  0.32755343  0.38837374  0.82006623    -0.23620
C410        C  0.37464355  0.39896594  0.81083215     0.19270
F411        F  0.38785939  0.44267860  0.79884806    -0.13580
F412        F  0.45311619  0.37481093  0.80026960    -0.15940
F413        F  0.27142330  0.33067592  0.84450412    -0.15950
F414        F  0.33697381  0.26366153  0.84543905    -0.13580
C415        C  0.40651163  0.19571369  0.63583174     0.24430
C416        C  0.39557470  0.18507444  0.68239566    -0.23680
C417        C  0.35033022  0.16832506  0.69262386     0.19340
C418        C  0.31611946  0.16590480  0.65794969     0.24370
C419        C  0.32624871  0.18027574  0.61245124    -0.23620
C420        C  0.37215094  0.19354334  0.60137108     0.19270
F421        F  0.38331493  0.20638994  0.55732771    -0.13580
F422        F  0.44985535  0.21040507  0.62373054    -0.15940
F423        F  0.27203824  0.15339150  0.66989146    -0.15950
F424        F  0.33807145  0.15671289  0.73670596    -0.13580
C425        C  0.63979598  0.40119673  0.80893905     0.24430
C426        C  0.68596630  0.38967124  0.82080542    -0.23680
C427        C  0.69615786  0.34398340  0.83441538     0.19340
C428        C  0.66168445  0.30958280  0.83256218     0.24370
C429        C  0.61609586  0.32025849  0.81713326    -0.23620
C430        C  0.60515895  0.36695759  0.80730711     0.19270
F431        F  0.56145678  0.37941942  0.79412294    -0.13580
F432        F  0.62854289  0.44548512  0.79713124    -0.15940
F433        F  0.67403044  0.26530887  0.84325268    -0.15950
F434        F  0.74044185  0.33161918  0.84567889    -0.13580
C435        C  0.60321659  0.18677977  0.63917820     0.24430
C436        C  0.61613338  0.17939090  0.68572779    -0.23680
C437        C  0.66260717  0.16839448  0.69615042     0.19340
C438        C  0.69637962  0.16830453  0.66110398     0.24370
C439        C  0.68422209  0.17902023  0.61467407    -0.23620
C440        C  0.63679590  0.18623096  0.60390410     0.19270
F441        F  0.62299602  0.19503147  0.55961519    -0.13580
F442        F  0.55817695  0.19621670  0.62805836    -0.15940
F443        F  0.74144696  0.16078647  0.67351875    -0.15950
F444        F  0.67620551  0.16187324  0.74091844    -0.13580
C445        C  0.50537649  0.23018495  0.02751455     0.24430
C446        C  0.50230077  0.18782107  0.05150827    -0.23680
C447        C  0.50205282  0.14585661  0.02662162     0.19340
C448        C  0.50395440  0.14622268  0.97807309     0.24370
C449        C  0.50754120  0.18850228  0.95402798    -0.23620
C450        C  0.50847585  0.23050577  0.97890628     0.19270
F451        F  0.51145675  0.27167077  0.95604422    -0.13580
F452        F  0.50626721  0.27100355  0.05124785    -0.15940
F453        F  0.50295643  0.10532894  0.95444712    -0.15950
F454        F  0.49961177  0.10461621  0.04943240    -0.13580
C455        C  0.40821900  0.19030334  0.36711546     0.24430
C456        C  0.39555579  0.18096505  0.32075946    -0.23680
C457        C  0.34884354  0.17081010  0.31040871     0.19340
C458        C  0.31479976  0.17319114  0.34512217     0.24370
C459        C  0.32684464  0.18556883  0.39123676    -0.23620
C460        C  0.37430684  0.19230186  0.40208392     0.19270
F461        F  0.38790447  0.20253264  0.44615298    -0.13580
F462        F  0.45340637  0.19912255  0.37827225    -0.15940
F463        F  0.26964573  0.16627452  0.33255712    -0.15950
F464        F  0.33538102  0.16268121  0.26584097    -0.13580
C465        C  0.66441486  0.17163475  0.30910483     0.24430
C466        C  0.61783812  0.18286920  0.32077497    -0.23680
C467        C  0.60601103  0.18723202  0.36807708     0.19340
C468        C  0.64047157  0.18426832  0.40238810     0.24370
C469        C  0.68738681  0.17657958  0.39025947    -0.23620
C470        C  0.69873477  0.16847256  0.34355533     0.19270
F471        F  0.74379703  0.16183308  0.33067031    -0.13580
F472        F  0.67776287  0.16675161  0.26407692    -0.15940
F473        F  0.62830963  0.19105918  0.44751955    -0.15950
F474        F  0.56145870  0.19620963  0.38123185    -0.13580
C475        C  0.47427962  0.97409980  0.16284477     0.24430
C476        C  0.50118277  0.94934927  0.19503092    -0.23680
C477        C  0.53006250  0.97345420  0.22627417     0.19340
C478        C  0.53198833  0.02204644  0.22539496     0.24370
C479        C  0.50534707  0.04707372  0.19283479    -0.23620
C480        C  0.47640773  0.02258924  0.16159138     0.19270
F481        F  0.45138814  0.04546759  0.12869916    -0.13580
F482        F  0.44750349  0.95114672  0.13129552    -0.15940
F483        F  0.55912093  0.04458726  0.25692801    -0.15950
F484        F  0.55591564  0.94984546  0.25798623    -0.13580
C485        C  0.46752603  0.79329830  0.98094857     0.24430
C486        C  0.50675781  0.80700649  0.95487211    -0.23680
C487        C  0.54807027  0.81936553  0.97878477     0.19340
C488        C  0.54965467  0.81900962  0.02732150     0.24370
C489        C  0.51005448  0.80663320  0.05312805    -0.23620
C490        C  0.46915352  0.79326672  0.02949029     0.19270
F491        F  0.43063859  0.77969545  0.05340086    -0.13580
F492        F  0.42726175  0.78022459  0.95971440    -0.15940
F493        F  0.58951068  0.83255125  0.04903850    -0.15950
F494        F  0.58705748  0.83255686  0.95545421    -0.13580
C495        C  0.65967978  0.83242640  0.31585069     0.24430
C496        C  0.61413619  0.81714244  0.32487606    -0.23680
C497        C  0.60187764  0.80435001  0.37044814     0.19340
C498        C  0.63550200  0.80341879  0.40568632     0.24370
C499        C  0.68226918  0.81477682  0.39582162    -0.23620
C500        C  0.69345309  0.83125755  0.35085373     0.19270
F501        F  0.73775506  0.84359183  0.33954522    -0.13580
F502        F  0.67269653  0.84449561  0.27209273    -0.15940
F503        F  0.62255970  0.78902118  0.44872916    -0.15950
F504        F  0.55760192  0.79085354  0.38044447    -0.13580
C505        C  0.40702649  0.80375937  0.36999159     0.24430
C506        C  0.39576887  0.81214896  0.32308370    -0.23680
C507        C  0.35021393  0.82750881  0.31215905     0.19340
C508        C  0.31596515  0.83037781  0.34663918     0.24370
C509        C  0.32640889  0.81788101  0.39260524    -0.23620
C510        C  0.37266513  0.80648974  0.40430529     0.19270
F511        F  0.38420448  0.79593747  0.44887072    -0.13580
F512        F  0.45077242  0.79091933  0.38264800    -0.15940
F513        F  0.27163920  0.84137085  0.33417176    -0.15950
F514        F  0.33764582  0.83702544  0.26764513    -0.13580
C515        C  0.81464902  0.45679011  0.97825119     0.24430
C516        C  0.81669208  0.49967551  0.95460996    -0.23680
C517        C  0.81857569  0.54091564  0.98089672     0.19340
C518        C  0.81926805  0.53932787  0.02947976     0.24370
C519        C  0.81797416  0.49640253  0.05318266    -0.23620
C520        C  0.81520775  0.45517914  0.02686120     0.19270
F521        F  0.81361012  0.41300968  0.04797547    -0.13580
F522        F  0.81166186  0.41610473  0.95442839    -0.15940
F523        F  0.82089927  0.58016441  0.05316556    -0.15950
F524        F  0.82067163  0.58303288  0.95971484    -0.13580
C525        C  0.84766256  0.36752319  0.33910636     0.24430
C526        C  0.80518347  0.38437568  0.32125845    -0.23680
C527        C  0.76295335  0.36783637  0.34027591     0.19340
C528        C  0.76306378  0.33621988  0.37673316     0.24370
C529        C  0.80515568  0.31952709  0.39466746    -0.23620
C530        C  0.84759358  0.33482875  0.37547399     0.19270
F531        F  0.88867893  0.31841249  0.39216952    -0.13580
F532        F  0.88891214  0.38300290  0.32186796    -0.15940
F533        F  0.72168522  0.31976418  0.39289368    -0.15950
F534        F  0.72109373  0.38077744  0.32230923    -0.13580
C535        C  0.69496992  0.34182820  0.16766050     0.24430
C536        C  0.68316488  0.38737208  0.18200482    -0.23680
C537        C  0.63604206  0.39735155  0.19160375     0.19340
C538        C  0.60262632  0.36189252  0.19117581     0.24370
C539        C  0.61536415  0.31588575  0.18061773    -0.23620
C540        C  0.66133462  0.30652911  0.16694948     0.19270
F541        F  0.67476274  0.26237457  0.15700688    -0.13580
F542        F  0.73966104  0.33041877  0.15707631    -0.15940
F543        F  0.55800934  0.37216789  0.20316736    -0.15950
F544        F  0.62249026  0.44082031  0.20404545    -0.13580
C545        C  0.64185629  0.59982195  0.18518445     0.24430
C546        C  0.68915646  0.61222911  0.18114682    -0.23680
C547        C  0.70121631  0.65931043  0.17742214     0.19340
C548        C  0.66691917  0.69364011  0.18108395     0.24370
C549        C  0.61966873  0.68144489  0.18832238    -0.23620
C550        C  0.60739107  0.63403843  0.18849942     0.19270
F551        F  0.56226703  0.62061837  0.19359089    -0.13580
F552        F  0.62925293  0.55438291  0.18806409    -0.15940
F553        F  0.68074319  0.73881581  0.18093737    -0.15950
F554        F  0.74670444  0.67231149  0.17486474    -0.13580
C555        C  0.76672251  0.65110908  0.38384956     0.24430
C556        C  0.80755611  0.67741219  0.39254309    -0.23680
C557        C  0.84829920  0.66671322  0.36739936     0.19340
C558        C  0.84777186  0.63096007  0.33393196     0.24370
C559        C  0.80680369  0.60505607  0.32589110    -0.23620
C560        C  0.76661384  0.61531184  0.35140984     0.19270
F561        F  0.72588048  0.59273684  0.34256352    -0.13580
F562        F  0.72561762  0.66134808  0.40496247    -0.15940
F563        F  0.88710228  0.62162188  0.30941138    -0.15950
F564        F  0.88834492  0.69079658  0.37497402    -0.13580
C565        C  0.03119476  0.53845418  0.19841320     0.24430
C566        C  0.05555674  0.49586264  0.19948534    -0.23680
C567        C  0.02978312  0.45427259  0.20266120     0.19340
C568        C  0.98100484  0.45519573  0.20336242     0.24370
C569        C  0.95674713  0.49772622  0.20105322    -0.23620
C570        C  0.98249848  0.53933932  0.19921546     0.19270
F571        F  0.96067750  0.58112702  0.19665780    -0.13580
F572        F  0.05431452  0.57963976  0.19624432    -0.15940
F573        F  0.95760019  0.41421871  0.20623600    -0.15950
F574        F  0.05156857  0.41242191  0.20408765    -0.13580
C575        C  0.18928852  0.54324820  0.02698917     0.24430
C576        C  0.19689956  0.50251217  0.05285327    -0.23680
C577        C  0.20537194  0.46064153  0.02886070     0.19340
C578        C  0.20542295  0.45931201  0.98026365     0.24370
C579        C  0.19680388  0.49984186  0.95416189    -0.23620
C580        C  0.18907780  0.54195859  0.97827939     0.19270
F581        F  0.18103221  0.58215212  0.95492184    -0.13580
F582        F  0.18066568  0.58424288  0.04876588    -0.15940
F583        F  0.21350403  0.41794707  0.95897824    -0.15950
F584        F  0.21422307  0.42072338  0.05242880    -0.13580
C585        C  0.31713042  0.34278647  0.16794886     0.24430
C586        C  0.32690095  0.38827530  0.18255386    -0.23680
C587        C  0.37279400  0.39989144  0.19563063     0.19340
C588        C  0.40734471  0.36576712  0.19803735     0.24370
C589        C  0.39663008  0.31913426  0.18760741    -0.23620
C590        C  0.35156794  0.30849415  0.17043804     0.19270
F591        F  0.33962137  0.26433538  0.15861222    -0.13580
F592        F  0.27317853  0.33044510  0.15527036    -0.15940
F593        F  0.45057827  0.37821643  0.21283370    -0.15950
F594        F  0.38369177  0.44409293  0.20830599    -0.13580
C595        C  0.20604183  0.39838876  0.37025998     0.24430
C596        C  0.19479472  0.38804126  0.32369258    -0.23680
C597        C  0.17689678  0.34335986  0.31322652     0.19340
C598        C  0.17430939  0.30896689  0.34755423     0.24370
C599        C  0.18956051  0.31834652  0.39298332    -0.23620
C600        C  0.20357425  0.36388749  0.40441399     0.19270
F601        F  0.21678677  0.37458256  0.44851615    -0.13580
F602        F  0.22144391  0.44131301  0.38265266    -0.15940
F603        F  0.16060534  0.26543346  0.33529859    -0.15950
F604        F  0.16426952  0.33177419  0.26919308    -0.13580
C605        C  0.31555896  0.65536020  0.17761839     0.24430
C606        C  0.32761760  0.60886329  0.18801493    -0.23680
C607        C  0.37516824  0.59749731  0.19287575     0.19340
C608        C  0.40924724  0.63235976  0.19143145     0.24370
C609        C  0.39656974  0.67898321  0.18432257    -0.23620
C610        C  0.34974479  0.68992030  0.17568565     0.19270
F611        F  0.33640058  0.73481290  0.16973068    -0.13580
F612        F  0.27034894  0.66838284  0.17238673    -0.15940
F613        F  0.45457644  0.62083331  0.19869110    -0.15950
F614        F  0.38870505  0.55303443  0.20096978    -0.13580
C615        C  0.16664445  0.64458074  0.32436587     0.24430
C616        C  0.19625179  0.60570294  0.32696342    -0.23680
C617        C  0.22401678  0.59997387  0.36713511     0.19340
C618        C  0.22534820  0.63403681  0.40161033     0.24370
C619        C  0.19867208  0.67477953  0.39730402    -0.23620
C620        C  0.16787450  0.67882465  0.35918342     0.19270
F621        F  0.13994742  0.71663198  0.35472809    -0.13580
F622        F  0.13835432  0.65086728  0.28703599    -0.15940
F623        F  0.25531009  0.62816635  0.43773304    -0.15950
F624        F  0.25183657  0.56215757  0.37244102    -0.13580
loop_ 
_geom_bond_atom_site_label_1 
_geom_bond_atom_site_label_2 
_geom_bond_distance 
_geom_bond_site_symmetry_2 
_ccdc_geom_bond_type 
O1           C16   1.263       .  A
O1           Al9   1.907       .  S
C2           O12   1.260       .  A
C2            O3   1.258       .  A
C2          C566   1.486       .  S
O3           Al5   1.895       .  S
O4            C6   1.264       .  A
O4           Al5   1.923       .  S
Al5          O13   1.906       .  S
Al5          O15   1.897       .  S
Al5          O14   1.794       .  S
C6           O19   1.256       .  A
C6          C616   1.488       .  S
O7           C17   1.263       .  A
O7           Al9   1.908       .  S
O8           C21   1.261       .  A
O8          Al18   1.912       .  S
Al9          O22   1.881       .  S
Al9          O19   1.881       .  S
Al9          O14   1.786       .  S
O10          C17   1.261       .  A
O10         Al18   1.903       .  S
O11          C20   1.260       .  A
O11         Al18   1.901       .  S
O12         Al18   1.900       .  S
O13          C20   1.262       .  A
O14         Al18   1.793       .  S
O15          C16   1.260       .  A
C16         C606   1.487       .  S
C17         C596   1.491       .  S
C20         C576   1.485       .  S
C21          O22   1.255       .  A
C21         C586   1.476       .  S
O23          C38   1.261       .  A
O23         Al31   1.905       .  S
C24          O34   1.257       .  A
C24          O25   1.257       .  A
C24         C569   1.483       .  S
O25         Al27   1.898       .  S
O26          C28   1.264       .  A
O26         Al27   1.924       .  S
Al27         O35   1.900       .  S
Al27         O37   1.904       .  S
Al27         O36   1.797       .  S
C28          O41   1.258       .  A
C28         C526   1.480       .  S
O29          C39   1.262       .  A
O29         Al31   1.897       .  S
O30          C43   1.260       .  A
O30         Al40   1.912       .  S
Al31         O44   1.877       .  S
Al31         O41   1.880       .  S
Al31         O36   1.784       .  S
O32          C39   1.260       .  A
O32         Al40   1.904       .  S
O33          C42   1.263       .  A
O33         Al40   1.905       .  S
O34         Al40   1.894       .  S
O35          C42   1.263       .  A
O36         Al40   1.796       .  S
O37          C38   1.259       .  A
C38         C536   1.489       .  S
C39         C559   1.473       .  S
C42         C519   1.487       .  S
C43          O44   1.253       .  A
C43         C546   1.473       .  S
O45          C60   1.262       .  A
O45         Al53   1.904       .  S
C46          O56   1.260       .  A
C46          O47   1.258       .  A
C46         C489   1.476       .  S
O47         Al49   1.890       .  S
O48          C50   1.258       .  A
O48         Al49   1.898       .  S
Al49         O57   1.893       .  S
Al49         O59   1.894       .  S
Al49         O58   1.798       .  S
C50          O63   1.256       .  A
C50         C609   1.472       .  S
O51          C61   1.262       .  A
O51         Al53   1.908       .  S
O52          C65   1.260       .  A
O52         Al62   1.901       .  S
Al53         O66   1.891       .  S
Al53         O63   1.890       .  S
Al53         O58   1.792       .  S
O54          C61   1.258       .  A
O54         Al62   1.897       .  S
O55          C64   1.256       .  A
O55         Al62   1.893       .  S
O56         Al62   1.898       .  S
O57          C64   1.257       .  A
O58         Al62   1.797       .  S
O59          C60   1.259       .  A
C60         C506   1.487       .  S
C61         C549   1.487       .  S
C64         C476   1.465       .  S
C65          O66   1.257       .  A
C65         C496   1.474       .  S
O67          C82   1.262       .  A
O67         Al75   1.909       .  S
C68          O78   1.259       .  A
C68          O69   1.259       .  A
C68         C446   1.465       .  S
O69         Al71   1.909       .  S
O70          C72   1.264       .  A
O70         Al71   1.909       .  S
Al71         O79   1.900       .  S
Al71         O81   1.896       .  S
Al71         O80   1.792       .  S
C72          O85   1.260       .  A
C72         C539   1.476       .  S
O73          C83   1.262       .  A
O73         Al75   1.908       .  S
O74          C87   1.264       .  A
O74         Al84   1.910       .  S
Al75         O88   1.896       .  S
Al75         O85   1.895       .  S
Al75         O80   1.784       .  S
O76          C83   1.257       .  A
O76         Al84   1.892       .  S
O77          C86   1.261       .  A
O77         Al84   1.906       .  S
O78         Al84   1.901       .  S
O79          C86   1.261       .  A
O80         Al84   1.790       .  S
O81          C82   1.258       .  A
C82         C466   1.488       .  S
C83         C589   1.488       .  S
C86         C479   1.477       .  S
C87          O88   1.260       .  A
C87         C456   1.477       .  S
O89         C104   1.261       .  A
O89         Al97   1.904       .  S
C90         O100   1.260       .  A
C90          O91   1.261       .  A
C90         C396   1.473       .  S
O91         Al93   1.907       .  S
O92          C94   1.261       .  A
O92         Al93   1.902       .  S
Al93        O101   1.901       .  S
Al93        O103   1.898       .  S
Al93        O102   1.790       .  S
C94         O107   1.260       .  A
C94         C436   1.474       .  S
O95         C105   1.260       .  A
O95         Al97   1.902       .  S
O96         C109   1.262       .  A
O96        Al106   1.905       .  S
Al97        O110   1.898       .  S
Al97        O107   1.899       .  S
Al97        O102   1.785       .  S
O98         C105   1.259       .  A
O98        Al106   1.905       .  S
O99         C108   1.259       .  A
O99        Al106   1.908       .  S
O100       Al106   1.893       .  S
O101        C108   1.259       .  A
O102       Al106   1.794       .  S
O103        C104   1.258       .  A
C104        C429   1.488       .  S
C105        C416   1.490       .  S
C108        C449   1.466       .  S
C109        O110   1.261       .  A
C109        C406   1.475       .  S
O111        C126   1.260       .  A
O111       Al119   1.902       .  S
C112        O122   1.258       .  A
C112        O113   1.257       .  A
C112        C376   1.474       .  S
O113       Al115   1.896       .  S
O114        C116   1.264       .  A
O114       Al115   1.925       .  S
Al115       O123   1.907       .  S
Al115       O125   1.903       .  S
Al115       O124   1.800       .  S
C116        O129   1.256       .  A
C116        C389   1.485       .  S
O117        C127   1.261       .  A
O117       Al119   1.896       .  S
O118        C131   1.260       .  A
O118       Al128   1.913       .  S
Al119       O132   1.874       .  S
Al119       O129   1.874       .  S
Al119       O124   1.788       .  S
O120        C127   1.259       .  A
O120       Al128   1.900       .  S
O121        C130   1.260       .  A
O121       Al128   1.897       .  S
O122       Al128   1.893       .  S
O123        C130   1.264       .  A
O124       Al128   1.800       .  S
O125        C126   1.259       .  A
C126        C439   1.489       .  S
C127        C529   1.466       .  S
C130        C366   1.491       .  S
C131        O132   1.253       .  A
C131        C469   1.475       .  S
O133        C148   1.263       .  A
O133       Al141   1.912       .  S
C134        O144   1.263       .  A
C134        O135   1.261       .  A
C134        C379   1.488       .  S
O135       Al137   1.901       .  S
O136        C138   1.263       .  A
O136       Al137   1.915       .  S
Al137       O145   1.911       .  S
Al137       O147   1.894       .  S
Al137       O146   1.791       .  S
C138        O151   1.258       .  A
C138        C599   1.480       .  S
O139        C149   1.261       .  A
O139       Al141   1.918       .  S
O140        C153   1.264       .  A
O140       Al150   1.910       .  S
Al141       O154   1.896       .  S
Al141       O151   1.888       .  S
Al141       O146   1.787       .  S
O142        C149   1.256       .  A
O142       Al150   1.891       .  S
O143        C152   1.259       .  A
O143       Al150   1.901       .  S
O144       Al150   1.906       .  S
O145        C152   1.262       .  A
O146       Al150   1.793       .  S
O147        C148   1.258       .  A
C148        C459   1.490       .  S
C149        C359   1.472       .  S
C152        C346   1.491       .  S
C153        O154   1.261       .  A
C153        C419   1.477       .  S
O155        C170   1.262       .  A
O155       Al163   1.905       .  S
C156        O166   1.260       .  A
C156        O157   1.259       .  A
C156        C319   1.484       .  S
O157       Al159   1.900       .  S
O158        C160   1.262       .  A
O158       Al159   1.913       .  S
Al159       O167   1.898       .  S
Al159       O169   1.901       .  S
Al159       O168   1.789       .  S
C160        O173   1.258       .  A
C160        C356   1.465       .  S
O161        C171   1.262       .  A
O161       Al163   1.900       .  S
O162        C175   1.262       .  A
O162       Al172   1.907       .  S
Al163       O176   1.891       .  S
Al163       O173   1.895       .  S
Al163       O168   1.785       .  S
O164        C171   1.261       .  A
O164       Al172   1.907       .  S
O165        C174   1.263       .  A
O165       Al172   1.914       .  S
O166       Al172   1.901       .  S
O167        C174   1.262       .  A
O168       Al172   1.792       .  S
O169        C170   1.259       .  A
C170        C409   1.488       .  S
C171        C339   1.486       .  S
C174        C579   1.491       .  S
C175        O176   1.258       .  A
C175        C326   1.476       .  S
O177        C192   1.261       .  A
O177       Al185   1.901       .  S
C178        O188   1.258       .  A
C178        O179   1.256       .  A
C178        C296   1.475       .  S
O179       Al181   1.890       .  S
O180        C182   1.262       .  A
O180       Al181   1.919       .  S
Al181       O189   1.905       .  S
Al181       O191   1.906       .  S
Al181       O190   1.798       .  S
C182        O195   1.256       .  A
C182        C336   1.486       .  S
O183        C193   1.262       .  A
O183       Al185   1.895       .  S
O184        C197   1.258       .  A
O184       Al194   1.907       .  S
Al185       O198   1.878       .  S
Al185       O195   1.885       .  S
Al185       O190   1.788       .  S
O186        C193   1.262       .  A
O186       Al194   1.911       .  S
O187        C196   1.261       .  A
O187       Al194   1.900       .  S
O188       Al194   1.898       .  S
O189        C196   1.263       .  A
O190       Al194   1.799       .  S
O191        C192   1.261       .  A
C192        C306   1.489       .  S
C193        C619   1.487       .  S
C196        C349   1.480       .  S
C197        O198   1.253       .  A
C197        C509   1.476       .  S
O199        C214   1.263       .  A
O199       Al207   1.907       .  S
C200        O210   1.262       .  A
C200        O201   1.259       .  A
C200        C299   1.487       .  S
O201       Al203   1.892       .  S
O202        C204   1.264       .  A
O202       Al203   1.932       .  S
Al203       O211   1.909       .  S
Al203       O213   1.893       .  S
Al203       O212   1.797       .  S
C204        O217   1.253       .  A
C204        C556   1.487       .  S
O205        C215   1.263       .  A
O205       Al207   1.913       .  S
O206        C219   1.262       .  A
O206       Al216   1.916       .  S
Al207       O220   1.875       .  S
Al207       O217   1.865       .  S
Al207       O212   1.787       .  S
O208        C215   1.259       .  A
O208       Al216   1.892       .  S
O209        C218   1.257       .  A
O209       Al216   1.890       .  S
O210       Al216   1.907       .  S
O211        C218   1.262       .  A
O212       Al216   1.795       .  S
O213        C214   1.259       .  A
C214        C499   1.487       .  S
C215        C276   1.479       .  S
C218        C369   1.481       .  S
C219        O220   1.254       .  A
C219        C289   1.475       .  S
O221        C236   1.261       .  A
O221       Al229   1.906       .  S
C222        O232   1.261       .  A
C222        O223   1.259       .  A
C222        C486   1.485       .  S
O223       Al225   1.898       .  S
O224        C226   1.262       .  A
O224       Al225   1.905       .  S
Al225       O233   1.899       .  S
Al225       O235   1.892       .  S
Al225       O234   1.792       .  S
C226        O239   1.261       .  A
C226        C266   1.477       .  S
O227        C237   1.261       .  A
O227       Al229   1.907       .  S
O228        C241   1.262       .  A
O228       Al238   1.905       .  S
Al229       O242   1.896       .  S
Al229       O239   1.898       .  S
Al229       O234   1.785       .  S
O230        C237   1.257       .  A
O230       Al238   1.894       .  S
O231        C240   1.260       .  A
O231       Al238   1.903       .  S
O232       Al238   1.899       .  S
O233        C240   1.261       .  A
O234       Al238   1.791       .  S
O235        C236   1.256       .  A
C236        C286   1.487       .  S
C237        C329   1.489       .  S
C240        C399   1.487       .  S
C241        O242   1.260       .  A
C241        C309   1.475       .  S
O243        C258   1.260       .  A
O243       Al251   1.899       .  S
C244        O254   1.258       .  A
C244        O245   1.259       .  A
C244        C316   1.468       .  S
O245       Al247   1.900       .  S
O246        C248   1.259       .  A
O246       Al247   1.900       .  S
Al247       O255   1.897       .  S
Al247       O257   1.903       .  S
Al247       O256   1.796       .  S
C248        O261   1.257       .  A
C248        C279   1.466       .  S
O249        C259   1.259       .  A
O249       Al251   1.891       .  S
O250        C263   1.261       .  A
O250       Al260   1.906       .  S
Al251       O264   1.889       .  S
Al251       O261   1.894       .  S
Al251       O256   1.790       .  S
O252        C259   1.259       .  A
O252       Al260   1.906       .  S
O253        C262   1.260       .  A
O253       Al260   1.903       .  S
O254       Al260   1.891       .  S
O255        C262   1.260       .  A
O256       Al260   1.800       .  S
O257        C258   1.259       .  A
C258        C269   1.489       .  S
C259        C386   1.469       .  S
C262        C516   1.485       .  S
C263        O264   1.257       .  A
C263        C426   1.476       .  S
C265        C266   1.406       .  A
C265        C270   1.398       .  A
C265        F272   1.358       .  S
C266        C267   1.403       .  A
C267        C268   1.399       .  A
C267        F274   1.358       .  S
C268        C269   1.414       .  A
C268        F273   1.358       .  S
C269        C270   1.410       .  A
C270        F271   1.358       .  S
C275        C276   1.411       .  A
C275        C280   1.394       .  A
C275        F282   1.359       .  S
C276        C277   1.407       .  A
C277        C278   1.403       .  A
C277        F284   1.358       .  S
C278        C279   1.405       .  A
C278        F283   1.358       .  S
C279        C280   1.400       .  A
C280        F281   1.359       .  S
C285        C286   1.416       .  A
C285        C290   1.399       .  A
C285        F292   1.358       .  S
C286        C287   1.407       .  A
C287        C288   1.396       .  A
C287        F294   1.358       .  S
C288        C289   1.408       .  A
C288        F293   1.358       .  S
C289        C290   1.401       .  A
C290        F291   1.358       .  S
C295        C296   1.402       .  A
C295        C300   1.397   1_455  A
C295        F302   1.358       .  S
C296        C297   1.407       .  A
C297        C298   1.400   1_455  A
C297        F304   1.358       .  S
C298        C299   1.409       .  A
C298        F303   1.358       .  S
C299        C300   1.414       .  A
C300        F301   1.358       .  S
C305        C306   1.410       .  A
C305        C310   1.399       .  A
C305        F312   1.358       .  S
C306        C307   1.414       .  A
C307        C308   1.399       .  A
C307        F314   1.358       .  S
C308        C309   1.402       .  A
C308        F313   1.358       .  S
C309        C310   1.406       .  A
C310        F311   1.358       .  S
C315        C316   1.404       .  A
C315        C320   1.400   1_655  A
C315        F322   1.358       .  S
C316        C317   1.400       .  A
C317        C318   1.396   1_655  A
C317        F324   1.358       .  S
C318        C319   1.413       .  A
C318        F323   1.358       .  S
C319        C320   1.410       .  A
C320        F321   1.358       .  S
C325        C326   1.402       .  A
C325        C330   1.399       .  A
C325        F332   1.358       .  S
C326        C327   1.407       .  A
C327        C328   1.398       .  A
C327        F334   1.358       .  S
C328        C329   1.408       .  A
C328        F333   1.358       .  S
C329        C330   1.415       .  A
C330        F331   1.358       .  S
C335        C336   1.412       .  A
C335        C340   1.395       .  A
C335        F342   1.359       .  S
C336        C337   1.406       .  A
C337        C338   1.403       .  A
C337        F344   1.358       .  S
C338        C339   1.412       .  A
C338        F343   1.358       .  S
C339        C340   1.406       .  A
C340        F341   1.358       .  S
C345        C346   1.415       .  A
C345        C350   1.399   1_545  A
C345        F352   1.358       .  S
C346        C347   1.409       .  A
C347        C348   1.401   1_545  A
C347        F354   1.358       .  S
C348        C349   1.408       .  A
C348        F353   1.358       .  S
C349        C350   1.402       .  A
C350        F351   1.358       .  S
C355        C356   1.406       .  A
C355        C360   1.406       .  A
C355        F362   1.357       .  S
C356        C357   1.401       .  A
C357        C358   1.393       .  A
C357        F364   1.359       .  S
C358        C359   1.406       .  A
C358        F363   1.359       .  S
C359        C360   1.406       .  A
C360        F361   1.357       .  S
C365        C366   1.415       .  A
C365        C370   1.400   1_545  A
C365        F372   1.358       .  S
C366        C367   1.409       .  A
C367        C368   1.399   1_545  A
C367        F374   1.358       .  S
C368        C369   1.409       .  A
C368        F373   1.358       .  S
C369        C370   1.403       .  A
C370        F371   1.358       .  S
C375        C376   1.406       .  A
C375        C380   1.401   1_655  A
C375        F382   1.358       .  S
C376        C377   1.402       .  A
C377        C378   1.396   1_655  A
C377        F384   1.358       .  S
C378        C379   1.414       .  A
C378        F383   1.358       .  S
C379        C380   1.410       .  A
C380        F381   1.358       .  S
C385        C386   1.406       .  A
C385        C390   1.407       .  A
C385        F392   1.357       .  S
C386        C387   1.398       .  A
C387        C388   1.388       .  A
C387        F394   1.359       .  S
C388        C389   1.414       .  A
C388        F393   1.359       .  S
C389        C390   1.410       .  A
C390        F391   1.357       .  S
C395        C396   1.402       .  A
C395        C400   1.397   1_545  A
C395        F402   1.358       .  S
C396        C397   1.406       .  A
C397        C398   1.398   1_545  A
C397        F404   1.358       .  S
C398        C399   1.410       .  A
C398        F403   1.358       .  S
C399        C400   1.414       .  A
C400        F401   1.358       .  S
C405        C406   1.406       .  A
C405        C410   1.399       .  A
C405        F412   1.358       .  S
C406        C407   1.402       .  A
C407        C408   1.398       .  A
C407        F414   1.358       .  S
C408        C409   1.415       .  A
C408        F413   1.358       .  S
C409        C410   1.409       .  A
C410        F411   1.358       .  S
C415        C416   1.410       .  A
C415        C420   1.398       .  A
C415        F422   1.358       .  S
C416        C417   1.414       .  A
C417        C418   1.400       .  A
C417        F424   1.358       .  S
C418        C419   1.403       .  A
C418        F423   1.358       .  S
C419        C420   1.407       .  A
C420        F421   1.358       .  S
C425        C426   1.407       .  A
C425        C430   1.398       .  A
C425        F432   1.358       .  S
C426        C427   1.403       .  A
C427        C428   1.398       .  A
C427        F434   1.358       .  S
C428        C429   1.414       .  A
C428        F433   1.358       .  S
C429        C430   1.409       .  A
C430        F431   1.358       .  S
C435        C436   1.405       .  A
C435        C440   1.399       .  A
C435        F442   1.358       .  S
C436        C437   1.402       .  A
C437        C438   1.398       .  A
C437        F444   1.358       .  S
C438        C439   1.414       .  A
C438        F443   1.358       .  S
C439        C440   1.410       .  A
C440        F441   1.358       .  S
C445        C446   1.404       .  A
C445        C450   1.401   1_554  A
C445        F452   1.358       .  S
C446        C447   1.403       .  A
C447        C448   1.397   1_554  A
C447        F454   1.358       .  S
C448        C449   1.403       .  A
C448        F453   1.358       .  S
C449        C450   1.404       .  A
C450        F451   1.358       .  S
C455        C456   1.407       .  A
C455        C460   1.401       .  A
C455        F462   1.358       .  S
C456        C457   1.402       .  A
C457        C458   1.399       .  A
C457        F464   1.358       .  S
C458        C459   1.415       .  A
C458        F463   1.358       .  S
C459        C460   1.409       .  A
C460        F461   1.358       .  S
C465        C466   1.415       .  A
C465        C470   1.399       .  A
C465        F472   1.358       .  S
C466        C467   1.408       .  A
C467        C468   1.399       .  A
C467        F474   1.358       .  S
C468        C469   1.408       .  A
C468        F473   1.358       .  S
C469        C470   1.402       .  A
C470        F471   1.358       .  S
C475        C476   1.400       .  A
C475        C480   1.397   1_565  A
C475        F482   1.358       .  S
C476        C477   1.403       .  A
C477        C478   1.399   1_565  A
C477        F484   1.358       .  S
C478        C479   1.407       .  A
C478        F483   1.358       .  S
C479        C480   1.410       .  A
C480        F481   1.358       .  S
C485        C486   1.408       .  A
C485        C490   1.397   1_556  A
C485        F492   1.358       .  S
C486        C487   1.414       .  A
C487        C488   1.397   1_556  A
C487        F494   1.358       .  S
C488        C489   1.403       .  A
C488        F493   1.358       .  S
C489        C490   1.408       .  A
C490        F491   1.358       .  S
C495        C496   1.402       .  A
C495        C500   1.397       .  A
C495        F502   1.358       .  S
C496        C497   1.407       .  A
C497        C498   1.398       .  A
C497        F504   1.358       .  S
C498        C499   1.409       .  A
C498        F503   1.358       .  S
C499        C500   1.415       .  A
C500        F501   1.358       .  S
C505        C506   1.408       .  A
C505        C510   1.397       .  A
C505        F512   1.358       .  S
C506        C507   1.415       .  A
C507        C508   1.399       .  A
C507        F514   1.358       .  S
C508        C509   1.403       .  A
C508        F513   1.358       .  S
C509        C510   1.407       .  A
C510        F511   1.358       .  S
C515        C516   1.410       .  A
C515        C520   1.399   1_556  A
C515        F522   1.358       .  S
C516        C517   1.407       .  A
C517        C518   1.398   1_556  A
C517        F524   1.358       .  S
C518        C519   1.412       .  A
C518        F523   1.358       .  S
C519        C520   1.408       .  A
C520        F521   1.358       .  S
C525        C526   1.408       .  A
C525        C530   1.407       .  A
C525        F532   1.357       .  S
C526        C527   1.411       .  A
C527        C528   1.389       .  A
C527        F534   1.359       .  S
C528        C529   1.398       .  A
C528        F533   1.359       .  S
C529        C530   1.407       .  A
C530        F531   1.357       .  S
C535        C536   1.415       .  A
C535        C540   1.399       .  A
C535        F542   1.358       .  S
C536        C537   1.409       .  A
C537        C538   1.398       .  A
C537        F544   1.358       .  S
C538        C539   1.406       .  A
C538        F543   1.358       .  S
C539        C540   1.402       .  A
C540        F541   1.358       .  S
C545        C546   1.407       .  A
C545        C550   1.399       .  A
C545        F552   1.358       .  S
C546        C547   1.402       .  A
C547        C548   1.399       .  A
C547        F554   1.358       .  S
C548        C549   1.414       .  A
C548        F553   1.358       .  S
C549        C550   1.408       .  A
C550        F551   1.358       .  S
C555        C556   1.415       .  A
C555        C560   1.389       .  A
C555        F562   1.359       .  S
C556        C557   1.409       .  A
C557        C558   1.408       .  A
C557        F564   1.357       .  S
C558        C559   1.409       .  A
C558        F563   1.358       .  S
C559        C560   1.398       .  A
C560        F561   1.359       .  S
C565        C566   1.412       .  A
C565        C570   1.397   1_455  A
C565        F572   1.358       .  S
C566        C567   1.408       .  A
C567        C568   1.399   1_455  A
C567        F574   1.358       .  S
C568        C569   1.410       .  A
C568        F573   1.358       .  S
C569        C570   1.406       .  A
C570        F571   1.358       .  S
C575        C576   1.406       .  A
C575        C580   1.401   1_554  A
C575        F582   1.358       .  S
C576        C577   1.409       .  A
C577        C578   1.398   1_554  A
C577        F584   1.358       .  S
C578        C579   1.409       .  A
C578        F583   1.358       .  S
C579        C580   1.413       .  A
C580        F581   1.358       .  S
C585        C586   1.402       .  A
C585        C590   1.399       .  A
C585        F592   1.358       .  S
C586        C587   1.408       .  A
C587        C588   1.397       .  A
C587        F594   1.358       .  S
C588        C589   1.408       .  A
C588        F593   1.358       .  S
C589        C590   1.416       .  A
C590        F591   1.358       .  S
C595        C596   1.409       .  A
C595        C600   1.399       .  A
C595        F602   1.358       .  S
C596        C597   1.415       .  A
C597        C598   1.400       .  A
C597        F604   1.358       .  S
C598        C599   1.403       .  A
C598        F603   1.358       .  S
C599        C600   1.408       .  A
C600        F601   1.358       .  S
C605        C606   1.414       .  A
C605        C610   1.396       .  A
C605        F612   1.358       .  S
C606        C607   1.409       .  A
C607        C608   1.400       .  A
C607        F614   1.358       .  S
C608        C609   1.405       .  A
C608        F613   1.358       .  S
C609        C610   1.401       .  A
C610        F611   1.359       .  S
C615        C616   1.407       .  A
C615        C620   1.404       .  A
C615        F622   1.357       .  S
C616        C617   1.412       .  A
C617        C618   1.394       .  A
C617        F624   1.359       .  S
C618        C619   1.406       .  A
C618        F623   1.358       .  S
C619        C620   1.412       .  A
C620        F621   1.358       .  S
