geometry optimzed in LAMMPS
_audit_creation_date              2020-12-01 
_audit_creation_method            'lammps2cif' 
_symmetry_space_group_name_H-M    'P1' 
_symmetry_Int_Tables_number       1 
_symmetry_cell_setting            triclinic 
loop_ 
_symmetry_equiv_pos_as_xyz 
  x,y,z 
_cell_length_a                    38.0101752 
_cell_length_b                    37.8913551694356 
_cell_length_c                    37.933254477345045 
_cell_angle_alpha                 90.14619704633219 
_cell_angle_beta                  90.00002061746089 
_cell_angle_gamma                 90.06190911604027 
loop_ 
_atom_site_label 
_atom_site_type_symbol 
_atom_site_fract_x 
_atom_site_fract_y 
_atom_site_fract_z 
_atom_site_charge 
O1          O  0.85150204  0.46132826  0.90154964    -0.73000
O2          O  0.90569980  0.53653714  0.85181784    -0.74000
O3          O  0.85303111  0.53490959  0.90440047    -0.62600
O4          O  0.90439531  0.46208725  0.84899818    -0.71000
O5          O  0.86400062  0.46459937  0.80683733    -0.70500
O6          O  0.81137963  0.53657045  0.86358901    -0.61800
O7          O  0.86450739  0.53913092  0.81095701    -0.74300
O8          O  0.81066665  0.46241438  0.85961051    -0.73100
Cu9        Cu  0.88014574  0.49859214  0.87802360     1.04600
Cu10       Cu  0.83624618  0.50074152  0.83369976     1.04300
C11         C  0.82216493  0.45079441  0.88898143     0.93200
C12         C  0.89376500  0.55000396  0.82336898     0.92400
C13         C  0.82361736  0.54667564  0.89327267     0.84500
C14         C  0.89271733  0.45217244  0.81902488     0.90800
O15         O  0.75866532  0.66441301  0.99927270    -0.73000
O16         O  0.70495969  0.72162856  0.06975462    -0.74000
O17         O  0.75488668  0.66621586  0.07376757    -0.62600
O18         O  0.70812156  0.71980421  0.99506013    -0.71000
O19         O  0.66519056  0.68033945  0.99416953    -0.70500
O20         O  0.71204389  0.62672882  0.07194320    -0.61800
O21         O  0.66228821  0.68177469  0.06845908    -0.74300
O22         O  0.71528620  0.62500660  0.99791808    -0.73100
Cu23       Cu  0.73319638  0.69443125  0.03445401     1.04600
Cu24       Cu  0.68722168  0.65214019  0.03304644     1.04300
C25         C  0.74562234  0.63543662  0.98808241     0.93200
C26         C  0.67505314  0.71064611  0.08031509     0.92400
C27         C  0.74083738  0.63777665  0.08526388     0.84500
C28         C  0.67881827  0.70890305  0.98257361     0.90800
O29         O  0.50134865  0.86796472  0.85036166    -0.73000
O30         O  0.57918659  0.81501998  0.89715452    -0.74000
O31         O  0.57495813  0.86732158  0.84325095    -0.62600
O32         O  0.50553013  0.81603709  0.90369430    -0.71000
O33         O  0.50133520  0.77385505  0.86341535    -0.70500
O34         O  0.57060290  0.82549713  0.80231931    -0.61800
O35         O  0.57551862  0.77297976  0.85678325    -0.74300
O36         O  0.49640293  0.82618304  0.80994798    -0.73100
Cu37       Cu  0.54049956  0.84299481  0.87495941     1.04600
Cu38       Cu  0.53591558  0.79811962  0.83166105     1.04300
C39         C  0.48643402  0.85580290  0.82279156     0.93200
C40         C  0.58899650  0.78502147  0.88526156     0.92400
C41         C  0.58279693  0.85511208  0.81286300     0.84500
C42         C  0.49250302  0.78672765  0.89324104     0.90800
O43         O  0.75026714  0.04203336  0.70207321    -0.73000
O44         O  0.69724546  0.96287924  0.74776066    -0.74000
O45         O  0.75177622  0.96741027  0.69758617    -0.62600
O46         O  0.69560552  0.03731921  0.75269369    -0.71000
O47         O  0.65626278  0.03974218  0.70946751    -0.70500
O48         O  0.71175925  0.96900879  0.65511969    -0.61800
O49         O  0.65732479  0.96515477  0.70529651    -0.74300
O50         O  0.71082583  0.04332441  0.65918285    -0.73100
Cu51       Cu  0.72513596  0.00242206  0.72653412     1.04600
Cu52       Cu  0.68268344  0.00442028  0.68076835     1.04300
C53         C  0.73903456  0.05507571  0.67313255     0.93200
C54         C  0.66892228  0.95139988  0.73374058     0.92400
C55         C  0.74023387  0.95665644  0.66783087     0.84500
C56         C  0.66695191  0.04924504  0.73992810     0.90800
O57         O  0.99484150  0.63014345  0.71674085    -0.73000
O58         O  0.06606546  0.67924444  0.65704334    -0.74000
O59         O  0.06905996  0.62828756  0.71121610    -0.62600
O60         O  0.99189372  0.68169648  0.66279519    -0.71000
O61         O  0.99607955  0.72377826  0.70328512    -0.70500
O62         O  0.07322610  0.67092833  0.75067484    -0.61800
O63         O  0.07022457  0.72187468  0.69691552    -0.74300
O64         O  0.99944694  0.67213009  0.75744020    -0.73100
Cu65       Cu  0.03023735  0.65334769  0.68554194     1.04600
Cu66       Cu  0.03480963  0.69866270  0.72844946     1.04300
C67         C  0.98645803  0.64293224  0.74672957     0.93200
C68         C  0.07971478  0.70818207  0.66765648     0.92400
C69         C  0.08353712  0.64123242  0.73883227     0.84500
C70         C  0.98233445  0.71162870  0.67508460     0.90800
O71         O  0.85145051  0.87155308  0.56966346    -0.73000
O72         O  0.90068278  0.81417574  0.49704172    -0.74000
O73         O  0.85162459  0.86946753  0.49569532    -0.62600
O74         O  0.90088356  0.81596131  0.57113488    -0.71000
O75         O  0.85758224  0.77710059  0.57321332    -0.70500
O76         O  0.80872664  0.83016220  0.49603670    -0.61800
O77         O  0.85793327  0.77427155  0.49861696    -0.74300
O78         O  0.80792506  0.83281791  0.57068487    -0.73100
Cu79       Cu  0.87765177  0.84407571  0.53340565     1.04600
Cu80       Cu  0.83147647  0.80219674  0.53469965     1.04300
C81         C  0.82171281  0.86162976  0.58155854     0.93200
C82         C  0.88710724  0.78536774  0.48618754     0.92400
C83         C  0.82213781  0.85850219  0.48382377     0.84500
C84         C  0.88751837  0.78786176  0.58404182     0.90800
O85         O  0.49321127  0.18472298  0.90198972    -0.73000
O86         O  0.56425860  0.13184606  0.84641000    -0.74000
O87         O  0.56703736  0.18467955  0.89897984    -0.62600
O88         O  0.49025108  0.13140821  0.84921981    -0.71000
O89         O  0.48897402  0.17240153  0.80777409    -0.70500
O90         O  0.56601443  0.22554688  0.85758271    -0.61800
O91         O  0.56332527  0.17233199  0.80473342    -0.74300
O92         O  0.49143673  0.22591798  0.86086154    -0.73100
Cu93       Cu  0.52871077  0.15678998  0.87553605     1.04600
Cu94       Cu  0.52732984  0.20053730  0.83129458     1.04300
C95         C  0.48115354  0.21389185  0.89060747     0.93200
C96         C  0.57506089  0.14318893  0.81663736     0.92400
C97         C  0.57849765  0.21381654  0.88650802     0.84500
C98         C  0.47812782  0.14296628  0.82002451     0.90800
O99         O  0.75087215  0.33421500  0.06766006    -0.73000
O100        O  0.70290291  0.27913573  0.99062746    -0.74000
O101        O  0.75276024  0.33568758  0.99260277    -0.62600
O102        O  0.70139989  0.27791727  0.06539601    -0.71000
O103        O  0.65867979  0.31736785  0.06506979    -0.70500
O104        O  0.70902858  0.37437039  0.99273961    -0.61800
O105        O  0.65966582  0.31830750  0.99076491    -0.74300
O106        O  0.70769042  0.37312481  0.06692323    -0.73100
Cu107      Cu  0.72858910  0.30537222  0.02900265     1.04600
Cu108      Cu  0.68231488  0.34706833  0.02879932     1.04300
C109        C  0.73677016  0.36242922  0.07971139     0.93200
C110        C  0.67315483  0.28970299  0.97911848     0.92400
C111        C  0.73921216  0.36459596  0.98183919     0.84500
C112        C  0.67164246  0.28858661  0.07678482     0.90800
O113        O  0.89541116  0.45792682  0.22309436    -0.73000
O114        O  0.84695908  0.53392624  0.16922517    -0.74000
O115        O  0.89725440  0.53141373  0.22428173    -0.62600
O116        O  0.84501825  0.45974929  0.16806270    -0.71000
O117        O  0.80211051  0.45964016  0.20762073    -0.70500
O118        O  0.85424091  0.53295468  0.26389161    -0.61800
O119        O  0.80369701  0.53446499  0.20829356    -0.74300
O120        O  0.85333324  0.45848849  0.26351458    -0.73100
Cu121      Cu  0.87252422  0.49572623  0.19480169     1.04600
Cu122      Cu  0.82670874  0.49636671  0.23721438     1.04300
C123        C  0.88302280  0.44714100  0.25244786     0.93200
C124        C  0.81761887  0.54621322  0.17992876     0.92400
C125        C  0.88450659  0.54290126  0.25322041     0.84500
C126        C  0.81526418  0.44841945  0.17865913     0.90800
O127        O  0.99414096  0.67802517  0.40827937    -0.73000
O128        O  0.06748110  0.62981205  0.35118039    -0.74000
O129        O  0.06769035  0.68434371  0.40175033    -0.62600
O130        O  0.99448951  0.62306396  0.35822149    -0.71000
O131        O  0.98741274  0.66171248  0.31493507    -0.70500
O132        O  0.06012898  0.72467715  0.36008576    -0.61800
O133        O  0.06139689  0.66930851  0.30876191    -0.74300
O134        O  0.98599500  0.71665722  0.36550637    -0.73100
Cu135      Cu  0.03120999  0.65255658  0.38131174     1.04600
Cu136      Cu  0.02349256  0.69456587  0.33578307     1.04300
C137        C  0.97799031  0.70472955  0.39595890     0.93200
C138        C  0.07586527  0.64141644  0.32072913     0.92400
C139        C  0.07525616  0.71419653  0.38827418     0.84500
C140        C  0.97991828  0.63223179  0.32943309     0.90800
O141        O  0.25900951  0.82076979  0.56551817    -0.73000
O142        O  0.20225458  0.77362764  0.48911547    -0.74000
O143        O  0.25741316  0.82452536  0.49111143    -0.62600
O144        O  0.20348548  0.76937522  0.56373450    -0.71000
O145        O  0.16378149  0.81234353  0.56598105    -0.70500
O146        O  0.21772762  0.86724385  0.49469243    -0.61800
O147        O  0.16331010  0.81666512  0.49190187    -0.74300
O148        O  0.21873256  0.86309741  0.56887605    -0.73100
Cu149      Cu  0.23197008  0.79550835  0.52734699     1.04600
Cu150      Cu  0.18957135  0.84127658  0.53055641     1.04300
C151        C  0.24793955  0.84976061  0.57872388     0.93200
C152        C  0.17365771  0.78756223  0.47832118     0.92400
C153        C  0.24591298  0.85468703  0.48149920     0.84500
C154        C  0.17455109  0.78194445  0.57540247     0.90800
O155        O  0.35891160  0.03081829  0.75626174    -0.73000
O156        O  0.31344453  0.95356691  0.69753245    -0.74000
O157        O  0.36313316  0.95573656  0.75434669    -0.62600
O158        O  0.30852669  0.02838905  0.70037954    -0.71000
O159        O  0.35145525  0.03101339  0.66080551    -0.70500
O160        O  0.40636846  0.95937089  0.71527248    -0.61800
O161        O  0.35725942  0.95708197  0.65957040    -0.74300
O162        O  0.40130758  0.03366648  0.71650564    -0.73100
Cu163      Cu  0.33445905  0.99197925  0.72858030     1.04600
Cu164      Cu  0.38057096  0.99546293  0.68681799     1.04300
C165        C  0.38777153  0.04438660  0.74543527     0.93200
C166        C  0.32803759  0.94350126  0.66872683     0.92400
C167        C  0.39334091  0.94602838  0.74323703     0.84500
C168        C  0.32115770  0.04064842  0.67174683     0.90800
O169        O  0.66746553  0.96307585  0.35483493    -0.73000
O170        O  0.71541884  0.04071223  0.40717289    -0.74000
O171        O  0.66154197  0.03699845  0.35509610    -0.62600
O172        O  0.72068359  0.96651069  0.40603252    -0.71000
O173        O  0.76126724  0.96950238  0.36415841    -0.70500
O174        O  0.70220342  0.04099157  0.31328102    -0.61800
O175        O  0.75632476  0.04400310  0.36589417    -0.74300
O176        O  0.70749800  0.96620610  0.31258531    -0.73100
Cu177      Cu  0.68994350  0.00185603  0.38222974     1.04600
Cu178      Cu  0.73326323  0.00544478  0.33746576     1.04300
C179        C  0.67980754  0.95208189  0.32558829     0.93200
C180        C  0.74401840  0.05410775  0.39557046     0.92400
C181        C  0.67203593  0.04928180  0.32561989     0.84500
C182        C  0.75010092  0.95660931  0.39311779     0.90800
O183        O  0.50088757  0.82069944  0.16617021    -0.73000
O184        O  0.57732795  0.87219076  0.21635464    -0.74000
O185        O  0.57472546  0.82049773  0.16255787    -0.62600
O186        O  0.50323704  0.87232480  0.21973692    -0.71000
O187        O  0.50551978  0.83069566  0.26079289    -0.70500
O188        O  0.57607089  0.77780819  0.20263460    -0.61800
O189        O  0.57991991  0.82996175  0.25647877    -0.74300
O190        O  0.50154459  0.77876078  0.20659408    -0.73100
Cu191      Cu  0.53904019  0.84788108  0.18986825     1.04600
Cu192      Cu  0.54087097  0.80279489  0.23310657     1.04300
C193        C  0.48887109  0.79171666  0.17818091     0.93200
C194        C  0.59084334  0.85945485  0.24430465     0.92400
C195        C  0.58595654  0.79065683  0.17318305     0.84500
C196        C  0.49336354  0.85989616  0.24936315     0.90800
O197        O  0.20971980  0.54085191  0.80441726    -0.73000
O198        O  0.26312446  0.47214605  0.86415584    -0.74000
O199        O  0.21065663  0.46660056  0.81077811    -0.62600
O200        O  0.26188617  0.54664475  0.85883173    -0.71000
O201        O  0.21966974  0.54918469  0.89900126    -0.70500
O202        O  0.16971280  0.46946322  0.85189500    -0.61800
O203        O  0.22172914  0.47544828  0.90529333    -0.74300
O204        O  0.16806447  0.54350308  0.84539193    -0.73100
Cu205      Cu  0.23784872  0.50652580  0.83308214     1.04600
Cu206      Cu  0.19334949  0.50950625  0.87672544     1.04300
C207        C  0.18010770  0.55239573  0.81527085     0.93200
C208        C  0.25102318  0.46322212  0.89422190     0.92400
C209        C  0.18163349  0.45551016  0.82361457     0.84500
C210        C  0.24905967  0.56006199  0.88705943     0.90800
O211        O  0.35816372  0.63124821  0.99795527    -0.73000
O212        O  0.40852164  0.68146405  0.07588980    -0.74000
O213        O  0.35414241  0.63050827  0.07245002    -0.62600
O214        O  0.41275989  0.68218676  0.00165620    -0.71000
O215        O  0.37312602  0.72521996  0.99994293    -0.70500
O216        O  0.31421498  0.67297651  0.07061936    -0.61800
O217        O  0.36884544  0.72414861  0.07455702    -0.74300
O218        O  0.31866259  0.67397618  0.99579050    -0.73100
Cu219      Cu  0.38471860  0.65486131  0.03703607     1.04600
Cu220      Cu  0.34227162  0.70056716  0.03517485     1.04300
C221        C  0.33056742  0.64457030  0.98426637     0.93200
C222        C  0.39688149  0.71081719  0.08753662     0.92400
C223        C  0.32477883  0.64337442  0.08262131     0.84500
C224        C  0.40240945  0.71200842  0.99006379     0.90800
O225        O  0.21775250  0.46658909  0.16383461    -0.73000
O226        O  0.16223521  0.54026425  0.21466497    -0.74000
O227        O  0.21729238  0.54089168  0.16386558    -0.62600
O228        O  0.16298412  0.46621665  0.21418359    -0.71000
O229        O  0.20219520  0.46568823  0.25704109    -0.70500
O230        O  0.25674296  0.54144100  0.20666018    -0.61800
O231        O  0.20172256  0.54030804  0.25748798    -0.74300
O232        O  0.25752170  0.46680391  0.20657426    -0.73100
Cu233      Cu  0.18875114  0.50351759  0.18766537     1.04600
Cu234      Cu  0.23094419  0.50360965  0.23346254     1.04300
C235        C  0.24639650  0.45511997  0.17700655     0.93200
C236        C  0.17268816  0.55127425  0.24475382     0.92400
C237        C  0.24606952  0.55263773  0.17679212     0.84500
C238        C  0.17348284  0.45413426  0.24365580     0.90800
O239        O  0.36088147  0.37947527  0.07373774    -0.73000
O240        O  0.40978185  0.32760805  0.99622792    -0.74000
O241        O  0.36002279  0.38360217  0.99976670    -0.62600
O242        O  0.41053271  0.32394039  0.07063613    -0.71000
O243        O  0.36746141  0.28441528  0.06852482    -0.70500
O244        O  0.31639097  0.34467638  0.99789359    -0.61800
O245        O  0.36626804  0.28867094  0.99427947    -0.74300
O246        O  0.31778497  0.34038468  0.07239258    -0.73100
Cu247      Cu  0.38681911  0.35496884  0.03510059     1.04600
Cu248      Cu  0.34043012  0.31316554  0.03318960     1.04300
C249        C  0.33137571  0.36848209  0.08527714     0.93200
C250        C  0.39604435  0.29972296  0.98323752     0.92400
C251        C  0.32988099  0.37405150  0.98837167     0.84500
C252        C  0.39709575  0.29476169  0.08066984     0.90800
O253        O  0.57185705  0.17799617  0.15933589    -0.73000
O254        O  0.49666614  0.12639720  0.21268991    -0.74000
O255        O  0.49765507  0.17736866  0.15819092    -0.62600
O256        O  0.57070113  0.12644718  0.21405590    -0.71000
O257        O  0.57052142  0.16912380  0.25422031    -0.70500
O258        O  0.49622368  0.21985018  0.19798168    -0.61800
O259        O  0.49578953  0.16880299  0.25268977    -0.74300
O260        O  0.57062848  0.22088991  0.19934760    -0.73100
Cu261      Cu  0.53434481  0.15058743  0.18473861     1.04600
Cu262      Cu  0.53334870  0.19614763  0.22750980     1.04300
C263        C  0.58212266  0.20816459  0.17036279     0.93200
C264        C  0.48435010  0.13922457  0.24135247     0.92400
C265        C  0.48538216  0.20682813  0.16875589     0.84500
C266        C  0.58171558  0.13928132  0.24318452     0.90800
O267        O  0.00092403  0.32949906  0.76122659    -0.73000
O268        O  0.07723565  0.27609392  0.71052260    -0.74000
O269        O  0.07569484  0.33008881  0.76369326    -0.62600
O270        O  0.00267792  0.27604813  0.70905597    -0.71000
O271        O  0.00357883  0.31710377  0.66774197    -0.70500
O272        O  0.07729197  0.37048047  0.72144628    -0.61800
O273        O  0.07762331  0.31703664  0.66896837    -0.74300
O274        O  0.00278051  0.37033277  0.71990297    -0.73100
Cu275      Cu  0.03920969  0.30150061  0.73763898     1.04600
Cu276      Cu  0.04041635  0.34515050  0.69315209     1.04300
C277        C  0.98954234  0.35845469  0.74848234     0.93200
C278        C  0.08896546  0.28788930  0.68120237     0.92400
C279        C  0.08762042  0.35907230  0.75134691     0.84500
C280        C  0.99163449  0.28791673  0.67962410     0.90800
O281        O  0.81380287  0.17547043  0.57602541    -0.73000
O282        O  0.86640719  0.22461241  0.49905926    -0.74000
O283        O  0.81201769  0.17311881  0.50148525    -0.62600
O284        O  0.86770052  0.22701518  0.57348500    -0.71000
O285        O  0.90776538  0.18470873  0.57401186    -0.70500
O286        O  0.85244495  0.13080067  0.50162569    -0.61800
O287        O  0.90665639  0.18245210  0.49971373    -0.74300
O288        O  0.85388418  0.13312213  0.57614397    -0.73100
Cu289      Cu  0.83858553  0.20153219  0.53744946     1.04600
Cu290      Cu  0.88158276  0.15629037  0.53784937     1.04300
C291        C  0.82545773  0.14631707  0.58819956     0.93200
C292        C  0.89524794  0.21161981  0.48757432     0.92400
C293        C  0.82324936  0.14327728  0.49062923     0.84500
C294        C  0.89668371  0.21462647  0.58499821     0.90800
O295        O  0.15762469  0.17790613  0.49795345    -0.73000
O296        O  0.20911465  0.11963508  0.56913399    -0.74000
O297        O  0.15874882  0.17506231  0.57236978    -0.62600
O298        O  0.20765032  0.12291806  0.49483771    -0.71000
O299        O  0.25058861  0.16210858  0.49534229    -0.70500
O300        O  0.20184401  0.21425700  0.57411292    -0.61800
O301        O  0.25247663  0.15890961  0.57023608    -0.74300
O302        O  0.20044817  0.21767259  0.49948402    -0.73100
Cu303      Cu  0.18181038  0.14756432  0.53359521     1.04600
Cu304      Cu  0.22786530  0.18964510  0.53484981     1.04300
C305        C  0.17086218  0.20701304  0.48752631     0.93200
C306        C  0.23923935  0.12961301  0.58023679     0.92400
C307        C  0.17225647  0.20294998  0.58557607     0.84500
C308        C  0.23687764  0.13394003  0.48261980     0.90800
O309        O  0.40262518  0.03793037  0.34768537    -0.73000
O310        O  0.35390408  0.96419064  0.40505613    -0.74000
O311        O  0.40618470  0.96377703  0.35196201    -0.62600
O312        O  0.35040745  0.03861556  0.40084224    -0.71000
O313        O  0.30875117  0.03387673  0.36018109    -0.70500
O314        O  0.36552183  0.95920446  0.31072152    -0.61800
O315        O  0.31305824  0.95919170  0.36388176    -0.74300
O316        O  0.36146610  0.03364041  0.30650999    -0.73100
Cu317      Cu  0.37966622  0.00131133  0.37778120     1.04600
Cu318      Cu  0.33570237  0.99636799  0.33389874     1.04300
C319        C  0.39020034  0.04700936  0.31776889     0.93200
C320        C  0.32583371  0.94972140  0.39356629     0.92400
C321        C  0.39515482  0.94975748  0.32333452     0.84500
C322        C  0.32064366  0.04791902  0.38846879     0.90800
O323        O  0.07180799  0.32568136  0.41087581    -0.73000
O324        O  0.99734389  0.37644975  0.35594219    -0.74000
O325        O  0.99781412  0.32526951  0.41032009    -0.62600
O326        O  0.07225603  0.37696806  0.35649736    -0.71000
O327        O  0.07198608  0.33466402  0.31598359    -0.70500
O328        O  0.99863129  0.28241995  0.37063064    -0.61800
O329        O  0.99734448  0.33340067  0.31653374    -0.74300
O330        O  0.07279291  0.28356207  0.37061964    -0.73100
Cu331      Cu  0.03484150  0.35263826  0.38474294     1.04600
Cu332      Cu  0.03527728  0.30709469  0.34201108     1.04300
C333        C  0.08372904  0.29618510  0.39993727     0.93200
C334        C  0.98520487  0.36279357  0.32755963     0.92400
C335        C  0.98659723  0.29550377  0.39925163     0.84500
C336        C  0.08381978  0.36400400  0.32766179     0.90800
C337        C  0.14689661  0.26516804  0.47242057    -0.05800
C338        C  0.15097363  0.22966186  0.46304455     0.00100
C339        C  0.13545315  0.21681268  0.43166882    -0.08500
C340        C  0.11492000  0.23996307  0.41144038    -0.05800
C341        C  0.10897785  0.27527034  0.42165828     0.00100
C342        C  0.12589695  0.28836095  0.45263011    -0.08400
C343        C  0.12177819  0.32612608  0.46568732     0.62000
H344        H  0.15929058  0.27424007  0.49651609     0.12700
H345        H  0.10236976  0.22999552  0.38782472     0.12700
C346        C  0.14095607  0.17908129  0.41916740     0.62300
F347        F  0.13062014  0.34949553  0.43918080    -0.22900
F348        F  0.08744339  0.33180827  0.47635028    -0.20200
F349        F  0.14336708  0.33332984  0.49423304    -0.19900
F350        F  0.12428639  0.15590329  0.44176234    -0.20000
F351        F  0.17655143  0.17158716  0.41818707    -0.20300
F352        F  0.12747474  0.17358721  0.38567836    -0.23000
C353        C  0.26368568  0.06342392  0.41488107    -0.05800
C354        C  0.29863317  0.07308958  0.40849516     0.00100
C355        C  0.31186419  0.10491555  0.42286746    -0.08500
C356        C  0.29032400  0.12441382  0.44593655    -0.05800
C357        C  0.25593658  0.11348002  0.45469727     0.00100
C358        C  0.24178778  0.08300945  0.43752300    -0.08400
C359        C  0.20412756  0.07038039  0.44274788     0.62000
H360        H  0.25408837  0.03923765  0.40301605     0.12700
H361        H  0.30083588  0.14805300  0.45804232     0.12700
C362        C  0.34811259  0.11881033  0.41315331     0.62300
F363        F  0.19561876  0.04276116  0.42032040    -0.22900
F364        F  0.18095651  0.09759839  0.43582155    -0.20200
F365        F  0.19955831  0.05854240  0.47689200    -0.19900
F366        F  0.35166316  0.11940234  0.37685488    -0.20000
F367        F  0.37391900  0.09753585  0.42742014    -0.20300
F368        F  0.35344333  0.15280164  0.42555717    -0.23000
C369        C  0.91409913  0.26888806  0.46348267    -0.05800
C370        C  0.91649358  0.23193234  0.46187579     0.00100
C371        C  0.93987219  0.21607552  0.43735259    -0.08500
C372        C  0.96154620  0.23807218  0.41695317    -0.05800
C373        C  0.96067004  0.27504388  0.42014134     0.00100
C374        C  0.93578469  0.29089170  0.44315885    -0.08400
C375        C  0.93177373  0.33067589  0.44668110     0.62000
H376        H  0.89591184  0.28061883  0.48201457     0.12700
H377        H  0.98037686  0.22629268  0.39909153     0.12700
C378        C  0.94203293  0.17631944  0.43216973     0.62300
F379        F  0.90216216  0.33974966  0.46593606    -0.22900
F380        F  0.92856289  0.34579776  0.41367567    -0.20200
F381        F  0.96071396  0.34464453  0.46386839    -0.19900
F382        F  0.90862040  0.16245078  0.42780411    -0.20000
F383        F  0.95798847  0.16091054  0.46103183    -0.20300
F384        F  0.96154472  0.16745403  0.40261505    -0.23000
C385        C  0.93847324  0.21481551  0.63483927    -0.05800
C386        C  0.91792101  0.23454048  0.61126783     0.00100
C387        C  0.91973631  0.27198256  0.61234059    -0.08500
C388        C  0.94339781  0.28800691  0.63596884    -0.05800
C389        C  0.96497566  0.26823977  0.65860405     0.00100
C390        C  0.96184621  0.23085924  0.65875721    -0.08400
C391        C  0.98348754  0.20761546  0.68311618     0.62000
H392        H  0.93619028  0.18634471  0.63419500     0.12700
H393        H  0.94548690  0.31648740  0.63671262     0.12700
C394        C  0.89793444  0.29521747  0.58808817     0.62300
F395        F  0.97781344  0.17204520  0.67684903    -0.22900
F396        F  0.97442328  0.21434843  0.71779807    -0.20200
F397        F  0.01893425  0.21419388  0.67819161    -0.19900
F398        F  0.86258868  0.29126337  0.59578566    -0.20000
F399        F  0.90405831  0.28601873  0.55332450    -0.20300
F400        F  0.90613138  0.33064031  0.59190793    -0.23000
C401        C  0.10927001  0.22982548  0.65970504    -0.05800
C402        C  0.11399788  0.26654378  0.66005802     0.00100
C403        C  0.14043775  0.28176273  0.63852108    -0.08500
C404        C  0.15958860  0.25972762  0.61561899    -0.05800
C405        C  0.15304983  0.22324227  0.61325279     0.00100
C406        C  0.12802753  0.20776868  0.63648253    -0.08400
C407        C  0.12037053  0.16837490  0.63679655     0.62000
H408        H  0.08926862  0.21862261  0.67658900     0.12700
H409        H  0.17887436  0.27132946  0.59814257     0.12700
C410        C  0.14854640  0.32104449  0.63938158     0.62300
F411        F  0.09988760  0.15875963  0.66540098    -0.22900
F412        F  0.15149109  0.14957322  0.63875978    -0.20200
F413        F  0.10228952  0.15901844  0.60653545    -0.19900
F414        F  0.15109632  0.33262695  0.67390701    -0.20000
F415        F  0.12223242  0.33947842  0.62230197    -0.20300
F416        F  0.18008951  0.32866515  0.62280187    -0.23000
C417        C  0.42576939  0.10119045  0.31427342    -0.05800
C418        C  0.40999147  0.07291381  0.29638073     0.00100
C419        C  0.41641025  0.06827837  0.25988009    -0.08500
C420        C  0.43969368  0.09157661  0.24296857    -0.05800
C421        C  0.45704376  0.11898086  0.26116257     0.00100
C422        C  0.44913949  0.12454644  0.29748882    -0.08400
C423        C  0.46563948  0.15404000  0.31918717     0.62000
H424        H  0.42007977  0.10433102  0.34208113     0.12700
H425        H  0.44508381  0.08795521  0.21518086     0.12700
C426        C  0.40032757  0.03793187  0.23910517     0.62300
F427        F  0.45459548  0.15345186  0.35397702    -0.22900
F428        F  0.45619280  0.18640557  0.30533626    -0.20200
F429        F  0.50187159  0.15063939  0.31912762    -0.19900
F430        F  0.40868764  0.00623676  0.25501536    -0.20000
F431        F  0.36417862  0.04173765  0.23778823    -0.20300
F432        F  0.41261429  0.03667177  0.20475754    -0.23000
C433        C  0.42465154  0.23760792  0.09377923    -0.05800
C434        C  0.41687185  0.27187212  0.10507398     0.00100
C435        C  0.42897249  0.28365030  0.13828058    -0.08500
C436        C  0.44998681  0.26095490  0.15857502    -0.05800
C437        C  0.45973654  0.22707153  0.14664645     0.00100
C438        C  0.44617961  0.21486831  0.11362001    -0.08400
C439        C  0.45449201  0.17861865  0.09839428     0.62000
H440        H  0.41473349  0.22933303  0.06827810     0.12700
H441        H  0.45985716  0.27025377  0.18369859     0.12700
C442        C  0.41949033  0.31993052  0.15234666     0.62300
F443        F  0.44476472  0.15265862  0.12205423    -0.22900
F444        F  0.49006206  0.17614928  0.09109290    -0.20200
F445        F  0.43656384  0.17221180  0.06723623    -0.19900
F446        F  0.43000382  0.32444255  0.18701618    -0.20000
F447        F  0.38341134  0.32453644  0.15091808    -0.20300
F448        F  0.43584332  0.34553391  0.13228167    -0.23000
C449        C  0.30412472  0.43690231  0.15447498    -0.05800
C450        C  0.26805244  0.42989720  0.15687173     0.00100
C451        C  0.25367939  0.40049854  0.13892020    -0.08500
C452        C  0.27579223  0.38053067  0.11700841    -0.05800
C453        C  0.31159016  0.38899200  0.11233527     0.00100
C454        C  0.32636382  0.41728512  0.13231283    -0.08400
C455        C  0.36498462  0.42766506  0.13034726     0.62000
H456        H  0.31452345  0.45920860  0.16903750     0.12700
H457        H  0.26463729  0.35869549  0.10230526     0.12700
C458        C  0.21547256  0.38961390  0.14348209     0.62300
F459        F  0.37244262  0.44160358  0.09752461    -0.22900
F460        F  0.38587597  0.39852500  0.13646277    -0.20200
F461        F  0.37376633  0.45292573  0.15530076    -0.19900
F462        F  0.19355808  0.41414588  0.12794141    -0.20000
F463        F  0.20772862  0.38709123  0.17901568    -0.20300
F464        F  0.20856642  0.35715099  0.12812066    -0.23000
C465        C  0.16116865  0.42054045  0.29849855    -0.05800
C466        C  0.15179403  0.42775261  0.26326738     0.00100
C467        C  0.12160978  0.41060995  0.24870070    -0.08500
C468        C  0.10109189  0.38908523  0.27072576    -0.05800
C469        C  0.10930914  0.38408076  0.30628192     0.00100
C470        C  0.14052306  0.39879845  0.32027163    -0.08400
C471        C  0.15251556  0.39080441  0.35760690     0.62000
H472        H  0.18446535  0.43284264  0.30941399     0.12700
H473        H  0.07735720  0.37689576  0.26062876     0.12700
C474        C  0.11015622  0.41482596  0.21048371     0.62300
F475        F  0.18601370  0.40364184  0.36416070    -0.22900
F476        F  0.15306712  0.35466772  0.36275037    -0.20200
F477        F  0.12985826  0.40614920  0.38163717    -0.19900
F478        F  0.13782639  0.40694416  0.18818561    -0.20000
F479        F  0.09882351  0.44899611  0.20470214    -0.20300
F480        F  0.08265799  0.39242431  0.20179242    -0.23000
C481        C  0.32151876  0.60463600  0.13474020    -0.05800
C482        C  0.30340731  0.62347332  0.10861221     0.00100
C483        C  0.26622817  0.62097621  0.10678019    -0.08500
C484        C  0.24874168  0.59868202  0.13065949    -0.05800
C485        C  0.26690269  0.57875890  0.15608859     0.00100
C486        C  0.30408236  0.58237329  0.15871859    -0.08400
C487        C  0.32578038  0.56229305  0.18570585     0.62000
H488        H  0.34985133  0.60727151  0.13593580     0.12700
H489        H  0.22040595  0.59624788  0.12923805     0.12700
C490        C  0.24499682  0.64050358  0.07902537     0.62300
F491        F  0.36147777  0.56864959  0.18207552    -0.22900
F492        F  0.32047075  0.52641521  0.18166158    -0.20200
F493        F  0.31619527  0.57257317  0.21936819    -0.19900
F494        F  0.25777942  0.63268119  0.04576160    -0.20000
F495        F  0.24718011  0.67646308  0.08493204    -0.20300
F496        F  0.20976150  0.63122020  0.07976189    -0.23000
C497        C  0.12718136  0.41957992  0.82041392    -0.05800
C498        C  0.16025634  0.42755032  0.80557202     0.00100
C499        C  0.17041996  0.40992873  0.77387650    -0.08500
C500        C  0.14609072  0.38706186  0.75742493    -0.05800
C501        C  0.11290290  0.38035383  0.77195350     0.00100
C502        C  0.10340483  0.39628121  0.80425280    -0.08400
C503        C  0.06784463  0.38946866  0.82111060     0.62000
H504        H  0.11948691  0.43229483  0.84477402     0.12700
H505        H  0.15259607  0.37441495  0.73265244     0.12700
C506        C  0.20636095  0.41483632  0.75702883     0.62300
F507        F  0.06270116  0.40967434  0.85113445    -0.22900
F508        F  0.06555029  0.35434515  0.83054889    -0.20200
F509        F  0.04130447  0.39750971  0.79754917    -0.19900
F510        F  0.23244614  0.40749915  0.78136367    -0.20000
F511        F  0.20989610  0.44908456  0.74502689    -0.20300
F512        F  0.21127130  0.39246257  0.72853174    -0.23000
C513        C  0.30628317  0.58148619  0.90915703    -0.05800
C514        C  0.26969370  0.58611435  0.90777663     0.00100
C515        C  0.25390833  0.61291172  0.92862411    -0.08500
C516        C  0.27510742  0.63206172  0.95228253    -0.05800
C517        C  0.31132945  0.62544436  0.95582317     0.00100
C518        C  0.32755299  0.60059724  0.93282159    -0.08400
C519        C  0.36692255  0.59354875  0.93315118     0.62000
H520        H  0.31798313  0.56114390  0.89286345     0.12700
H521        H  0.26297968  0.65141818  0.96942294     0.12700
C522        C  0.21489558  0.62136672  0.92642188     0.62300
F523        F  0.37734647  0.57337635  0.90451347    -0.22900
F524        F  0.37591878  0.57535776  0.96339433    -0.20200
F525        F  0.38525389  0.62508756  0.93178968    -0.19900
F526        F  0.19566028  0.59559494  0.94353313    -0.20000
F527        F  0.20447911  0.62320027  0.89153117    -0.20300
F528        F  0.20719049  0.65350136  0.94207810    -0.23000
C529        C  0.27998869  0.45220244  0.95100529    -0.05800
C530        C  0.27160870  0.43974592  0.91722974     0.00100
C531        C  0.28227648  0.40552536  0.90670149    -0.08500
C532        C  0.30123155  0.38466669  0.93080363    -0.05800
C533        C  0.31018137  0.39742135  0.96439465     0.00100
C534        C  0.29936492  0.43167142  0.97488186    -0.08400
C535        C  0.30703683  0.44598526  0.01154595     0.62000
H536        H  0.27134422  0.47843359  0.95843088     0.12700
H537        H  0.30958980  0.35831969  0.92348898     0.12700
C538        C  0.27289085  0.39091579  0.87059682     0.62300
F539        F  0.29230245  0.47898790  0.01681601    -0.22900
F540        F  0.34293181  0.44904559  0.01650626    -0.20200
F541        F  0.29323280  0.42338038  0.03653652    -0.19900
F542        F  0.28988248  0.41013872  0.84475463    -0.20000
F543        F  0.23691642  0.39299989  0.86542184    -0.20300
F544        F  0.28276929  0.35594526  0.86698235    -0.23000
C545        C  0.41582735  0.76764202  0.11335868    -0.05800
C546        C  0.41700805  0.73065261  0.11468322     0.00100
C547        C  0.43825598  0.71408507  0.14056456    -0.08500
C548        C  0.46001566  0.73526572  0.16190026    -0.05800
C549        C  0.46140554  0.77214234  0.15813490     0.00100
C550        C  0.43769760  0.78884285  0.13447680    -0.08400
C551        C  0.43516177  0.82874669  0.13105235     0.62000
H552        H  0.39870211  0.78001708  0.09423473     0.12700
H553        H  0.47742248  0.72278888  0.18069847     0.12700
C554        C  0.43802729  0.67437030  0.14609980     0.62300
F555        F  0.40563420  0.83884169  0.11224844    -0.22900
F556        F  0.46435517  0.84159891  0.11348900    -0.20200
F557        F  0.43293391  0.84408435  0.16411193    -0.19900
F558        F  0.45564075  0.65782996  0.11879230    -0.20000
F559        F  0.40373190  0.66216281  0.14759042    -0.20300
F560        F  0.45441840  0.66506201  0.17731433    -0.23000
C561        C  0.43420457  0.88515315  0.25567608    -0.05800
C562        C  0.46753497  0.87975148  0.27027352     0.00100
C563        C  0.47629003  0.89519361  0.30296547    -0.08500
C564        C  0.45128770  0.91669304  0.31968678    -0.05800
C565        C  0.41797903  0.92351636  0.30472490     0.00100
C566        C  0.40882345  0.90642776  0.27239347    -0.08400
C567        C  0.37288416  0.91007801  0.25512388     0.62000
H568        H  0.42843584  0.87271091  0.23060115     0.12700
H569        H  0.45824987  0.92911630  0.34443446     0.12700
C570        C  0.51252301  0.89039821  0.31919821     0.62300
F571        F  0.36964137  0.88890673  0.22547374    -0.22900
F572        F  0.36752695  0.94456803  0.24463813    -0.20200
F573        F  0.34690322  0.90005036  0.27860088    -0.19900
F574        F  0.53792973  0.90228524  0.29598484    -0.20000
F575        F  0.51825907  0.85511730  0.32636201    -0.20300
F576        F  0.51619283  0.90903204  0.35042757    -0.23000
C577        C  0.75640297  0.07879793  0.45463822    -0.05800
C578        C  0.76357923  0.07968406  0.41822036     0.00100
C579        C  0.78945660  0.10370127  0.40544879    -0.08500
C580        C  0.80837276  0.12435479  0.42998007    -0.05800
C581        C  0.80163598  0.12229222  0.46618543     0.00100
C582        C  0.77484428  0.09987388  0.47880238    -0.08400
C583        C  0.76604065  0.09821807  0.51778592     0.62000
H584        H  0.73658188  0.06076479  0.46439973     0.12700
H585        H  0.82887772  0.14213476  0.42114101     0.12700
C586        C  0.79693635  0.10824585  0.36639276     0.62300
F587        F  0.73894305  0.07480976  0.52475835    -0.22900
F588        F  0.75575148  0.13126999  0.52927325    -0.20200
F589        F  0.79530002  0.08751671  0.53657585    -0.19900
F590        F  0.76577764  0.11373815  0.34835829    -0.20000
F591        F  0.81354484  0.07851332  0.35334066    -0.20300
F592        F  0.81860367  0.13693856  0.36004721    -0.23000
C593        C  0.66246267  0.92554403  0.26870199    -0.05800
C594        C  0.66080651  0.92429246  0.30561515     0.00100
C595        C  0.63967961  0.89809409  0.32202725    -0.08500
C596        C  0.61865083  0.87628816  0.30069175    -0.05800
C597        C  0.61784330  0.87987814  0.26387682     0.00100
C598        C  0.64125803  0.90395813  0.24735346    -0.08400
C599        C  0.64373584  0.90762270  0.20753815     0.62000
H600        H  0.67925994  0.94538170  0.25638850     0.12700
H601        H  0.60108391  0.85745802  0.31297101     0.12700
C602        C  0.63871554  0.89304263  0.36175502     0.62300
F603        F  0.67313719  0.92676433  0.19755849    -0.22900
F604        F  0.61438981  0.92505223  0.19493291    -0.20200
F605        F  0.64612394  0.87464780  0.19196850    -0.19900
F606        F  0.61972150  0.92002280  0.37728639    -0.20000
F607        F  0.67256291  0.89273788  0.37510520    -0.20300
F608        F  0.62294803  0.86140881  0.37093693    -0.23000
C609        C  0.59515633  0.08294391  0.27178349    -0.05800
C610        C  0.60562343  0.11776366  0.26502126     0.00100
C611        C  0.63839413  0.13011941  0.27788822    -0.08500
C612        C  0.65949476  0.10696656  0.29780260    -0.05800
C613        C  0.64857303  0.07236756  0.30507393     0.00100
C614        C  0.61614118  0.05984441  0.29152551    -0.08400
C615        C  0.60450761  0.02178768  0.29640655     0.62000
H616        H  0.57017263  0.07394445  0.26133707     0.12700
H617        H  0.68467508  0.11569918  0.30798825     0.12700
C618        C  0.65150415  0.16697595  0.26955823     0.62300
F619        F  0.57343740  0.01452050  0.27874742    -0.22900
F620        F  0.59922670  0.01479328  0.33175308    -0.20200
F621        F  0.63009958  0.99948041  0.28329604    -0.19900
F622        F  0.62990290  0.19171538  0.28533702    -0.20000
F623        F  0.65145427  0.17208423  0.23346129    -0.20300
F624        F  0.68543848  0.17239820  0.28170892    -0.23000
C625        C  0.29264455  0.05300173  0.61520605    -0.05800
C626        C  0.29979813  0.06430549  0.64964855     0.00100
C627        C  0.28689892  0.09726682  0.66161808    -0.08500
C628        C  0.26717709  0.11817308  0.63812501    -0.05800
C629        C  0.25954965  0.10646209  0.60382403     0.00100
C630        C  0.27241998  0.07343212  0.59202801    -0.08400
C631        C  0.26577179  0.06033109  0.55474478     0.62000
H632        H  0.30284812  0.02769980  0.60671728     0.12700
H633        H  0.25722113  0.14362269  0.64642990     0.12700
C634        C  0.29459018  0.11046059  0.69863593     0.62300
F635        F  0.28220900  0.02839201  0.54820536    -0.22900
F636        F  0.27856595  0.08467964  0.53088539    -0.20200
F637        F  0.23009759  0.05568982  0.54939390    -0.19900
F638        F  0.33049941  0.11025564  0.70461227    -0.20000
F639        F  0.27825266  0.08885570  0.72297948    -0.20300
F640        F  0.28251065  0.14453952  0.70380747    -0.23000
C641        C  0.29980772  0.88666613  0.58952990    -0.05800
C642        C  0.27027702  0.86973831  0.60345189     0.00100
C643        C  0.26139539  0.87449670  0.63921651    -0.08500
C644        C  0.28169928  0.89782835  0.65980659    -0.05800
C645        C  0.31046070  0.91660241  0.64564589     0.00100
C646        C  0.32022353  0.91022872  0.60973197    -0.08400
C647        C  0.35108585  0.92854752  0.59179765     0.62000
H648        H  0.30591055  0.88215271  0.56199368     0.12700
H649        H  0.27469216  0.90198201  0.68714761     0.12700
C650        C  0.23085009  0.85452511  0.65542005     0.62300
F651        F  0.35458813  0.91858263  0.55680776    -0.22900
F652        F  0.38212356  0.91985119  0.60870904    -0.20200
F653        F  0.34625262  0.96472773  0.59248170    -0.19900
F654        F  0.23576381  0.81869204  0.65047817    -0.20000
F655        F  0.19970579  0.86457242  0.63954536    -0.20300
F656        F  0.22796028  0.86085242  0.69125893    -0.23000
C657        C  0.30254776  0.87927256  0.46190700    -0.05800
C658        C  0.26626757  0.87609696  0.45628924     0.00100
C659        C  0.25031599  0.89432258  0.42799118    -0.08500
C660        C  0.27098244  0.91762529  0.40803734    -0.05800
C661        C  0.30703434  0.92268625  0.41490791     0.00100
C662        C  0.32351227  0.90201545  0.44151297    -0.08400
C663        C  0.36287670  0.90324678  0.44852285     0.62000
H664        H  0.31419721  0.86457748  0.48338613     0.12700
H665        H  0.25867131  0.93276963  0.38729343     0.12700
C666        C  0.21196114  0.88852032  0.41813682     0.62300
F667        F  0.37342410  0.87677271  0.47129779    -0.22900
F668        F  0.37184594  0.93521690  0.46372125    -0.20200
F669        F  0.38113520  0.89877515  0.41727361    -0.19900
F670        F  0.19022945  0.90307016  0.44348837    -0.20000
F671        F  0.20517742  0.85273351  0.41529195    -0.20300
F672        F  0.20373979  0.90394687  0.38612903    -0.23000
C673        C  0.13507375  0.72150354  0.41167453    -0.05800
C674        C  0.10178600  0.73622049  0.40617823     0.00100
C675        C  0.09327108  0.76900800  0.42165044    -0.08500
C676        C  0.11816630  0.78529526  0.44374923    -0.05800
C677        C  0.15114450  0.76983678  0.45109190     0.00100
C678        C  0.16029717  0.73777484  0.43352131    -0.08400
C679        C  0.19592200  0.72003621  0.43768390     0.62000
H680        H  0.14071378  0.69629972  0.39935413     0.12700
H681        H  0.11128547  0.80994712  0.45642579     0.12700
C682        C  0.05741836  0.78582834  0.41621512     0.62300
F683        F  0.19969744  0.69138207  0.41525465    -0.22900
F684        F  0.19981000  0.70789791  0.47181131    -0.20200
F685        F  0.22248089  0.74372581  0.42979522    -0.19900
F686        F  0.03130677  0.76301559  0.42740371    -0.20000
F687        F  0.05260327  0.79321234  0.38087090    -0.20300
F688        F  0.05394259  0.81707815  0.43488255    -0.23000
C689        C  0.12753884  0.59821489  0.24573505    -0.05800
C690        C  0.15038116  0.57631240  0.26491495     0.00100
C691        C  0.14925209  0.57700227  0.30233856    -0.08500
C692        C  0.12585016  0.60030222  0.31892599    -0.05800
C693        C  0.10234071  0.62153097  0.29986182     0.00100
C694        C  0.10298688  0.62044591  0.26241777    -0.08400
C695        C  0.07727148  0.64125519  0.23986295     0.62000
H696        H  0.12863242  0.59726822  0.21724434     0.12700
H697        H  0.12522185  0.60150541  0.34740774     0.12700
C698        C  0.17108370  0.55228395  0.32511525     0.62300
F699        F  0.08080345  0.63349033  0.20434029    -0.22900
F700        F  0.08319895  0.67701744  0.24411609    -0.20200
F701        F  0.04307948  0.63323967  0.24948075    -0.19900
F702        F  0.20634660  0.56076543  0.32220758    -0.20000
F703        F  0.16570738  0.51768501  0.31463405    -0.20300
F704        F  0.16208494  0.55459344  0.36042727    -0.23000
C705        C  0.93996356  0.55281747  0.28407084    -0.05800
C706        C  0.90662179  0.56579104  0.27528425     0.00100
C707        C  0.89631602  0.59989047  0.28634110    -0.08500
C708        C  0.92117276  0.62110072  0.30394574    -0.05800
C709        C  0.95473753  0.60819581  0.31235287     0.00100
C710        C  0.96406188  0.57311802  0.30334870    -0.08400
C711        C  0.99940458  0.55728520  0.31338714     0.62000
H712        H  0.94682185  0.52627760  0.27587969     0.12700
H713        H  0.91447997  0.64778748  0.31173925     0.12700
C714        C  0.85955515  0.61373095  0.27934290     0.62300
F715        F  0.00394908  0.52386871  0.29925785    -0.22900
F716        F  0.00172826  0.55447581  0.34964699    -0.20200
F717        F  0.02639743  0.57840382  0.30114378    -0.19900
F718        F  0.83532419  0.59347345  0.29748154    -0.20000
F719        F  0.85221593  0.61209405  0.24369587    -0.20300
F720        F  0.85578709  0.64841446  0.29024087    -0.23000
C721        C  0.92490900  0.39771241  0.25474120    -0.05800
C722        C  0.90457733  0.42225966  0.27351272     0.00100
C723        C  0.90928768  0.42555804  0.31048827    -0.08500
C724        C  0.93517323  0.40476857  0.32696671    -0.05800
C725        C  0.95668966  0.38128200  0.30790938     0.00100
C726        C  0.95108142  0.37725050  0.27102469    -0.08400
C727        C  0.97329885  0.35284190  0.24823604     0.62000
H728        H  0.92071145  0.39546165  0.22658612     0.12700
H729        H  0.93920459  0.40718466  0.35511959     0.12700
C730        C  0.88839152  0.45183791  0.33240947     0.62300
F731        F  0.96527139  0.35592359  0.21276978    -0.22900
F732        F  0.96742245  0.31812762  0.25775013    -0.20200
F733        F  0.00853836  0.36103582  0.25227626    -0.19900
F734        F  0.85308600  0.44305467  0.33154918    -0.20000
F735        F  0.89297498  0.48552839  0.31924139    -0.20300
F736        F  0.89894015  0.45214321  0.36735633    -0.23000
C737        C  0.79104074  0.37622854  0.11323254    -0.05800
C738        C  0.75507104  0.38312576  0.10779405     0.00100
C739        C  0.73831057  0.40944653  0.12883299    -0.08500
C740        C  0.75889710  0.42917007  0.15264384    -0.05800
C741        C  0.79515573  0.42354611  0.15625875     0.00100
C742        C  0.81138038  0.39578638  0.13725263    -0.08400
C743        C  0.84996027  0.38653452  0.14220197     0.62000
H744        H  0.80368907  0.35594653  0.09763039     0.12700
H745        H  0.74699725  0.45029993  0.16774706     0.12700
C746        C  0.69908180  0.41712570  0.12667937     0.62300
F747        F  0.85793609  0.35389607  0.12780452    -0.22900
F748        F  0.85807102  0.38530607  0.17774642    -0.20200
F749        F  0.87081378  0.41152949  0.12585532    -0.19900
F750        F  0.68016442  0.38616320  0.13061450    -0.20000
F751        F  0.69117877  0.43246095  0.09459443    -0.20300
F752        F  0.68821069  0.44016252  0.15289755    -0.23000
C753        C  0.61467748  0.27575280  0.10510688    -0.05800
C754        C  0.65070600  0.26760434  0.10263277     0.00100
C755        C  0.66460065  0.24019443  0.12424683    -0.08500
C756        C  0.64143288  0.22152680  0.14658507    -0.05800
C757        C  0.60552718  0.22959942  0.14810545     0.00100
C758        C  0.59184459  0.25717079  0.12727137    -0.08400
C759        C  0.55282741  0.26574931  0.12708345     0.62000
H760        H  0.60398378  0.29637396  0.08861457     0.12700
H761        H  0.65104964  0.20015006  0.16283206     0.12700
C762        C  0.70338128  0.23054057  0.12426315     0.62300
F763        F  0.54498080  0.29386655  0.10522242    -0.22900
F764        F  0.54176659  0.27442232  0.16071732    -0.20200
F765        F  0.53435456  0.23667929  0.11514899    -0.19900
F766        F  0.72354731  0.26032019  0.13055531    -0.20000
F767        F  0.71247820  0.21591705  0.09209588    -0.20300
F768        F  0.71130815  0.20611939  0.15016911    -0.23000
C769        C  0.43071878  0.09333351  0.74650804    -0.05800
C770        C  0.40672875  0.07254161  0.76563089     0.00100
C771        C  0.40436187  0.07738234  0.80276931    -0.08500
C772        C  0.42715339  0.10188617  0.81918044    -0.05800
C773        C  0.45221568  0.12129175  0.80004535     0.00100
C774        C  0.45401694  0.11699935  0.76292371    -0.08400
C775        C  0.48188587  0.13525663  0.74068129     0.62000
H776        H  0.43193459  0.09008688  0.71818064     0.12700
H777        H  0.42616962  0.10555621  0.84747906     0.12700
C778        C  0.37908250  0.05619028  0.82540839     0.62300
F779        F  0.48130453  0.12398678  0.70592648    -0.22900
F780        F  0.51489902  0.12788553  0.75407271    -0.20200
F781        F  0.47635284  0.17130557  0.74079645    -0.19900
F782        F  0.38574108  0.02052421  0.82140038    -0.20000
F783        F  0.34480425  0.06341115  0.81559348    -0.20300
F784        F  0.38239142  0.06431245  0.86087230    -0.23000
C785        C  0.63454824  0.28763590  0.92693406    -0.05800
C786        C  0.65327693  0.26887682  0.95263272     0.00100
C787        C  0.64936833  0.23173884  0.95471111    -0.08500
C788        C  0.62602939  0.21490743  0.93127621    -0.05800
C789        C  0.60589803  0.23380980  0.90653011     0.00100
C790        C  0.61070586  0.27098607  0.90387009    -0.08400
C791        C  0.59003418  0.29361624  0.87810775     0.62000
H792        H  0.63814269  0.31596105  0.92576139     0.12700
H793        H  0.62265765  0.18658924  0.93281009     0.12700
C794        C  0.66813018  0.21004278  0.98265183     0.62300
F795        F  0.59752775  0.32919315  0.88194105    -0.22900
F796        F  0.55432928  0.28925376  0.88373764    -0.20200
F797        F  0.59841861  0.28414922  0.84388958    -0.19900
F798        F  0.66065008  0.22335592  0.01581154    -0.20000
F799        F  0.70404390  0.21109977  0.97696032    -0.20300
F800        F  0.65777217  0.17500114  0.98205506    -0.23000
C801        C  0.45616570  0.27158004  0.90801418    -0.05800
C802        C  0.45640997  0.23475729  0.91260273     0.00100
C803        C  0.43426622  0.21940720  0.93863155    -0.08500
C804        C  0.41410165  0.24182618  0.96012729    -0.05800
C805        C  0.41554237  0.27866190  0.95685006     0.00100
C806        C  0.43618972  0.29394325  0.92979363    -0.08400
C807        C  0.43720656  0.33354424  0.92365325     0.62000
H808        H  0.47295489  0.28301149  0.88803488     0.12700
H809        H  0.39811457  0.23068684  0.98092544     0.12700
C810        C  0.43186588  0.17975207  0.94443800     0.62300
F811        F  0.45358135  0.34190740  0.89215163    -0.22900
F812        F  0.45564303  0.34987554  0.95055553    -0.20200
F813        F  0.40332097  0.34680221  0.92242357    -0.19900
F814        F  0.46248255  0.16775077  0.96003436    -0.20000
F815        F  0.42666315  0.16258138  0.91261759    -0.20300
F816        F  0.40411557  0.17087655  0.96635162    -0.23000
C817        C  0.91163427  0.72841425  0.46772991    -0.05800
C818        C  0.90617484  0.76408413  0.46011548     0.00100
C819        C  0.92029279  0.77888077  0.42903696    -0.08500
C820        C  0.94267301  0.75807678  0.40825892    -0.05800
C821        C  0.95085025  0.72303999  0.41737266     0.00100
C822        C  0.93362795  0.70727846  0.44675813    -0.08400
C823        C  0.93818756  0.66865726  0.45656912     0.62000
H824        H  0.89976824  0.71764744  0.49129634     0.12700
H825        H  0.95499632  0.76972626  0.38535876     0.12700
C826        C  0.91143705  0.81625129  0.41757330     0.62300
F827        F  0.91415123  0.65815019  0.48190517    -0.22900
F828        F  0.97152442  0.66322709  0.47010213    -0.20200
F829        F  0.93310237  0.64753221  0.42719018    -0.19900
F830        F  0.92784661  0.84038359  0.43946496    -0.20000
F831        F  0.87540969  0.82134457  0.41893708    -0.20300
F832        F  0.92233018  0.82278588  0.38337595    -0.23000
C833        C  0.75154008  0.90109363  0.42623300    -0.05800
C834        C  0.77046409  0.92941232  0.41198134     0.00100
C835        C  0.80705484  0.93212694  0.41817641    -0.08500
C836        C  0.82299648  0.90708251  0.44024917    -0.05800
C837        C  0.80364980  0.87985174  0.45656332     0.00100
C838        C  0.76733110  0.87590790  0.44821701    -0.08400
C839        C  0.74462404  0.84625756  0.46282071     0.62000
H840        H  0.72367508  0.89941160  0.42058287     0.12700
H841        H  0.85086166  0.90932862  0.44570561     0.12700
C842        C  0.82888995  0.96222476  0.40323002     0.62300
F843        F  0.71044618  0.84764298  0.45025175    -0.22900
F844        F  0.74310584  0.84863908  0.49918570    -0.20200
F845        F  0.75845520  0.81396017  0.45291415    -0.19900
F846        F  0.81446214  0.99423875  0.41320401    -0.20000
F847        F  0.82967343  0.95996095  0.36685642    -0.20300
F848        F  0.86330878  0.96139519  0.41516403    -0.23000
C849        C  0.93579331  0.78615714  0.62749853    -0.05800
C850        C  0.90794306  0.76800164  0.61103303     0.00100
C851        C  0.90278427  0.73158727  0.61873338    -0.08500
C852        C  0.92704514  0.71461477  0.64103692    -0.05800
C853        C  0.95581389  0.73254474  0.65578264     0.00100
C854        C  0.96014822  0.76910624  0.64936016    -0.08400
C855        C  0.99134798  0.78984879  0.66371200     0.62000
H856        H  0.93905790  0.81404707  0.62230768     0.12700
H857        H  0.92420965  0.68674101  0.64665462     0.12700
C858        C  0.87278627  0.71012279  0.60301821     0.62300
F859        F  0.99236754  0.82398625  0.65080709    -0.22900
F860        F  0.02241978  0.77346048  0.65409272    -0.20200
F861        F  0.98927004  0.79191235  0.70004356    -0.19900
F862        F  0.87505555  0.71029074  0.56661963    -0.20000
F863        F  0.84089725  0.72421040  0.61354143    -0.20300
F864        F  0.87354424  0.67527168  0.61388824    -0.23000
C865        C  0.09984802  0.72551349  0.60855729    -0.05800
C866        C  0.10581068  0.72617543  0.64505808     0.00100
C867        C  0.13638822  0.74308029  0.65854437    -0.08500
C868        C  0.15905523  0.76032243  0.63479946    -0.05800
C869        C  0.15208523  0.76071170  0.59858640     0.00100
C870        C  0.12255143  0.74257103  0.58498372    -0.08400
C871        C  0.11519375  0.74137311  0.54565478     0.62000
H872        H  0.07665263  0.71208948  0.59861740     0.12700
H873        H  0.18208152  0.77423375  0.64437793     0.12700
C874        C  0.14572792  0.74203343  0.69745268     0.62300
F875        F  0.08608315  0.72084849  0.53773847    -0.22900
F876        F  0.14387946  0.72720503  0.52825179    -0.20200
F877        F  0.10901787  0.77510126  0.53333812    -0.19900
F878        F  0.14541816  0.70746306  0.70908712    -0.20000
F879        F  0.12179382  0.76166083  0.71667063    -0.20300
F880        F  0.17888906  0.75577454  0.70385744    -0.23000
C881        C  0.12058642  0.58760154  0.74361484    -0.05800
C882        C  0.11155433  0.62093937  0.75748329     0.00100
C883        C  0.12843728  0.63277855  0.78904344    -0.08500
C884        C  0.15158948  0.60969024  0.80636156    -0.05800
C885        C  0.15913609  0.57614931  0.79306720     0.00100
C886        C  0.14415430  0.56495673  0.76086264    -0.08400
C887        C  0.15190901  0.52869835  0.74557442     0.62000
H888        H  0.10839114  0.57880939  0.71934753     0.12700
H889        H  0.16370013  0.61735944  0.83107864     0.12700
C890        C  0.12231432  0.66908527  0.80519016     0.62300
F891        F  0.13299986  0.52222775  0.71502944    -0.22900
F892        F  0.14310640  0.50296854  0.76979238    -0.20200
F893        F  0.18729378  0.52614139  0.73755920    -0.19900
F894        F  0.08779354  0.67208488  0.81629664    -0.20000
F895        F  0.12984551  0.69501026  0.78071977    -0.20300
F896        F  0.14362610  0.67512016  0.83419552    -0.23000
C897        C  0.79723984  0.93241594  0.64882309    -0.05800
C898        C  0.76044218  0.93020497  0.64776144     0.00100
C899        C  0.74408138  0.90291027  0.62811786    -0.08500
C900        C  0.76530836  0.88067714  0.60756747    -0.05800
C901        C  0.80211873  0.88425245  0.60673052     0.00100
C902        C  0.81860545  0.90960737  0.62897880    -0.08400
C903        C  0.85835384  0.91266427  0.63247646     0.62000
H904        H  0.80921778  0.95295555  0.66470378     0.12700
H905        H  0.75295729  0.86085850  0.59108460     0.12700
C906        C  0.70456508  0.89661202  0.62919128     0.62300
F907        F  0.86793092  0.93409818  0.66050874    -0.22900
F908        F  0.87244201  0.92712904  0.60216385    -0.20200
F909        F  0.87281340  0.87968032  0.63828404    -0.19900
F910        F  0.68733196  0.92291111  0.61085374    -0.20000
F911        F  0.69296890  0.89626597  0.66376832    -0.20300
F912        F  0.69550135  0.86455596  0.61410910    -0.23000
C913        C  0.63712459  0.10650114  0.74567798    -0.05800
C914        C  0.64551899  0.07386474  0.76063485     0.00100
C915        C  0.63188869  0.06453147  0.79389896    -0.08500
C916        C  0.60955784  0.08834868  0.81102086    -0.05800
C917        C  0.60051000  0.12123579  0.79626634     0.00100
C918        C  0.61525061  0.13091807  0.76306600    -0.08400
C919        C  0.60875401  0.16652209  0.74580194     0.62000
H920        H  0.64808684  0.11267325  0.72004528     0.12700
H921        H  0.59879709  0.08096892  0.83635303     0.12700
C922        C  0.64001403  0.02914669  0.81087319     0.62300
F923        F  0.62773739  0.17039818  0.71487779    -0.22900
F924        F  0.61894604  0.19333430  0.76842796    -0.20200
F925        F  0.57354144  0.17011466  0.73746395    -0.19900
F926        F  0.67530325  0.02760487  0.81953195    -0.20000
F927        F  0.63196769  0.00204385  0.78777112    -0.20300
F928        F  0.62076135  0.02383936  0.84139644    -0.23000
C929        C  0.79675448  0.08157136  0.65924895    -0.05800
C930        C  0.76005467  0.08247727  0.65481099     0.00100
C931        C  0.74506643  0.10815843  0.63210850    -0.08500
C932        C  0.76770443  0.13012157  0.61282524    -0.05800
C933        C  0.80441603  0.12664005  0.61453544     0.00100
C934        C  0.81937006  0.10314476  0.63942718    -0.01200
C935        C  0.85884261  0.10034637  0.64516406     0.62000
H936        H  0.80790529  0.06232690  0.67710007     0.12700
H937        H  0.75664989  0.14901103  0.59458794     0.12700
C938        C  0.70556429  0.11242589  0.62747975     0.62300
F939        F  0.86673023  0.08226999  0.67584622    -0.22900
F940        F  0.87351652  0.13368163  0.64790334    -0.20200
F941        F  0.87409152  0.08238510  0.61732667    -0.19900
F942        F  0.68934943  0.11423751  0.66007020    -0.20000
F943        F  0.69220315  0.08422333  0.60852827    -0.20300
F944        F  0.69725365  0.14296331  0.60930686    -0.23000
C945        C  0.64121714  0.87272712  0.79011983    -0.05800
C946        C  0.60462107  0.87664480  0.78920589     0.00100
C947        C  0.58925826  0.90262263  0.76745094    -0.08500
C948        C  0.61134720  0.92560887  0.74880581    -0.05800
C949        C  0.64813119  0.92339963  0.75134288     0.00100
C950        C  0.66349522  0.89554732  0.77111068    -0.08400
C951        C  0.70297099  0.88944761  0.77192184     0.62000
H952        H  0.65223003  0.85223475  0.80663467     0.12700
H953        H  0.59989191  0.94652478  0.73316661     0.12700
C954        C  0.54962278  0.90642248  0.76463933     0.62300
F955        F  0.71127448  0.85710293  0.78662715    -0.22900
F956        F  0.71912453  0.91541754  0.79182670    -0.20200
F957        F  0.71633016  0.88992116  0.73799055    -0.19900
F958        F  0.53589210  0.91539683  0.79717775    -0.20000
F959        F  0.53512774  0.87482082  0.75351005    -0.20300
F960        F  0.53999536  0.93227685  0.74079519    -0.23000
C961        C  0.45238028  0.86936691  0.76862899    -0.05800
C962        C  0.45886977  0.87691756  0.80441746     0.00100
C963        C  0.44003529  0.90504594  0.82080279    -0.08500
C964        C  0.41805625  0.92626865  0.79987627    -0.05800
C965        C  0.41398625  0.92021399  0.76368697     0.00100
C966        C  0.43003533  0.89043064  0.74796461    -0.08400
C967        C  0.42288712  0.88038790  0.70982006     0.62000
H968        H  0.46590864  0.84739478  0.75641209     0.12700
H969        H  0.40478087  0.94876856  0.81144187     0.12700
C970        C  0.44263653  0.91307238  0.86002143     0.62300
F971        F  0.43655374  0.84754415  0.70154485    -0.22900
F972        F  0.43799405  0.90482133  0.68745414    -0.20200
F973        F  0.38696503  0.87923670  0.70395186    -0.19900
F974        F  0.47505934  0.92784496  0.86760703    -0.20000
F975        F  0.43812962  0.88240950  0.87924957    -0.20300
F976        F  0.41703024  0.93670685  0.87085235    -0.23000
C977        C  0.47467119  0.76970404  0.95326274    -0.05800
C978        C  0.46824107  0.76727624  0.91685128     0.00100
C979        C  0.43919660  0.74701062  0.90453629    -0.08500
C980        C  0.41790145  0.72956777  0.92941919    -0.05800
C981        C  0.42497380  0.73168444  0.96557434     0.00100
C982        C  0.45354127  0.75208579  0.97790196    -0.08400
C983        C  0.46119824  0.75552576  0.01702346     0.62000
H984        H  0.49684499  0.78521828  0.96234749     0.12700
H985        H  0.39575352  0.71369152  0.92085755     0.12700
C986        C  0.43016098  0.74416393  0.86561916     0.62300
F987        F  0.48975913  0.77726820  0.02362171    -0.22900
F988        F  0.46838434  0.72267923  0.03107969    -0.20200
F989        F  0.43221826  0.76973937  0.03380688    -0.19900
F990        F  0.45582921  0.72499519  0.84827010    -0.20000
F991        F  0.42779019  0.77751093  0.85102929    -0.20300
F992        F  0.39829272  0.72725027  0.86023821    -0.23000
C993        C  0.63813069  0.71007887  0.93152762    -0.05800
C994        C  0.65975700  0.72917706  0.95484651     0.00100
C995        C  0.66018462  0.76661085  0.95278503    -0.08500
C996        C  0.63808728  0.78331500  0.92815842    -0.05800
C997        C  0.61526828  0.76431106  0.90591049     0.00100
C998        C  0.61572850  0.72679865  0.90713893    -0.08400
C999        C  0.59191213  0.70419445  0.88407506     0.62000
H1000       H  0.63839021  0.68154960  0.93311115     0.12700
H1001       H  0.63784170  0.81184507  0.92668916     0.12700
C1002       C  0.68253688  0.78923410  0.97725230     0.62300
F1003       F  0.59552821  0.66854855  0.89116789    -0.22900
F1004       F  0.60029638  0.70927454  0.84897680    -0.20200
F1005       F  0.55708769  0.71309849  0.88984699    -0.19900
F1006       F  0.71779224  0.78325574  0.97056255    -0.20000
F1007       F  0.67504136  0.78117606  0.01201092    -0.20300
F1008       F  0.67631157  0.82492974  0.97265029    -0.23000
C1009       C  0.79586947  0.62011046  0.11531927    -0.05800
C1010       C  0.75912280  0.61675194  0.11286616     0.00100
C1011       C  0.74152453  0.59279445  0.13568480    -0.08500
C1012       C  0.76177693  0.57134397  0.15807417    -0.05800
C1013       C  0.79867736  0.57285951  0.15846350     0.00100
C1014       C  0.81610484  0.59854275  0.13756682    -0.08400
C1015       C  0.85582149  0.60334197  0.13819822     0.62000
H1016       H  0.80905082  0.63885471  0.09831834     0.12700
H1017       H  0.74879766  0.55189870  0.17445108     0.12700
C1018       C  0.70167685  0.58942149  0.13673026     0.62300
F1019       F  0.86603769  0.63424554  0.12167129    -0.22900
F1020       F  0.87182560  0.57550929  0.12088948    -0.20200
F1021       F  0.86772565  0.60490694  0.17260535    -0.19900
F1022       F  0.68989445  0.57254084  0.10659202    -0.20000
F1023       F  0.68647415  0.62250105  0.13922857    -0.20300
F1024       F  0.69044714  0.56995339  0.16546605    -0.23000
C1025       C  0.61722578  0.73077576  0.10042249    -0.05800
C1026       C  0.65381811  0.73175604  0.10520222     0.00100
C1027       C  0.66834492  0.75173362  0.13345345    -0.08500
C1028       C  0.64528561  0.77073881  0.15550749    -0.05800
C1029       C  0.60886036  0.76990968  0.15007004     0.00100
C1030       C  0.59442151  0.74942637  0.12253386    -0.08400
C1031       C  0.55495082  0.74678690  0.11710747     0.62000
H1032       H  0.60649926  0.71535507  0.07887671     0.12700
H1033       H  0.65545570  0.78658707  0.17703049     0.12700
C1034       C  0.70760216  0.75238582  0.14097654     0.62300
F1035       F  0.54626557  0.72454425  0.08942708    -0.22900
F1036       F  0.54128220  0.77978695  0.10991256    -0.20200
F1037       F  0.53959256  0.73362005  0.14735460    -0.19900
F1038       F  0.72500416  0.77011247  0.11434749    -0.20000
F1039       F  0.72030019  0.71825068  0.14325789    -0.20300
F1040       F  0.71513968  0.76935691  0.17245776    -0.23000
C1041       C  0.94828212  0.58577798  0.81877551    -0.05800
C1042       C  0.91497611  0.57738471  0.80459443     0.00100
C1043       C  0.90414242  0.59422854  0.77276518    -0.08500
C1044       C  0.92815870  0.61644973  0.75536955    -0.05800
C1045       C  0.96167447  0.62320335  0.76896105     0.00100
C1046       C  0.97186714  0.60842503  0.80149981    -0.08400
C1047       C  0.00811496  0.61520976  0.81703356     0.62000
H1048       H  0.95637823  0.57366349  0.84325173     0.12700
H1049       H  0.92124457  0.62839622  0.73040146     0.12700
C1050       C  0.86786760  0.58914215  0.75658501     0.62300
F1051       F  0.01320646  0.59719672  0.84832825    -0.22900
F1052       F  0.01221400  0.65082735  0.82386948    -0.20200
F1053       F  0.03370142  0.60434194  0.79349280    -0.19900
F1054       F  0.84223115  0.59734476  0.78113796    -0.20000
F1055       F  0.86387192  0.55463100  0.74531492    -0.20300
F1056       F  0.86261235  0.61079626  0.72770755    -0.23000
C1057       C  0.80523096  0.56437882  0.95277465    -0.05800
C1058       C  0.80315305  0.57052514  0.91630283     0.00100
C1059       C  0.78195721  0.59855274  0.90347096    -0.08500
C1060       C  0.76394415  0.61976722  0.92797817    -0.05800
C1061       C  0.76607896  0.61323017  0.96416696     0.00100
C1062       C  0.78671566  0.58516000  0.97702838    -0.08400
C1063       C  0.78918999  0.57746869  0.01622767     0.62000
H1064       H  0.82112677  0.54263932  0.96219890     0.12700
H1065       H  0.74752753  0.64136011  0.91910833     0.12700
C1066       C  0.77851719  0.60645686  0.86441689     0.62300
F1067       F  0.81053747  0.54873067  0.02318855    -0.22900
F1068       F  0.75609013  0.57028536  0.02955293    -0.20200
F1069       F  0.80306463  0.60648519  0.03347056    -0.19900
F1070       F  0.76060463  0.57931770  0.84783506    -0.20000
F1071       F  0.81154552  0.61013655  0.84958181    -0.20300
F1072       F  0.76008315  0.63736205  0.85842334    -0.23000
C1073       C  0.77334145  0.37205745  0.92664900    -0.05800
C1074       C  0.75897243  0.38734527  0.95725140     0.00100
C1075       C  0.76482655  0.42366185  0.96451205    -0.08500
C1076       C  0.78566687  0.44317434  0.94112441    -0.05800
C1077       C  0.79992445  0.42792890  0.91072905     0.00100
C1078       C  0.79341164  0.39212903  0.90273296    -0.08400
C1079       C  0.80807915  0.37545749  0.86946523     0.62000
H1080       H  0.76847187  0.34434243  0.92152654     0.12700
H1081       H  0.79100144  0.47083877  0.94628626     0.12700
C1082       C  0.75022744  0.44169230  0.99725222     0.62300
F1083       F  0.79953906  0.34001377  0.86700753    -0.22900
F1084       F  0.84434424  0.37853392  0.86919954    -0.20200
F1085       F  0.79448854  0.39241957  0.84024674    -0.19900
F1086       F  0.76051048  0.42346167  0.02704003    -0.20000
F1087       F  0.71391583  0.44275941  0.99558055    -0.20300
F1088       F  0.76216371  0.47609779  0.00054111    -0.23000
C1089       C  0.92511106  0.39625290  0.81662462    -0.05800
C1090       C  0.91321995  0.42620441  0.79872217     0.00100
C1091       C  0.92395691  0.43229095  0.76361925    -0.08500
C1092       C  0.94777044  0.40860067  0.74811029    -0.05800
C1093       C  0.96137501  0.37928468  0.76647678     0.00100
C1094       C  0.94872011  0.37222683  0.80115708    -0.08400
C1095       C  0.95989612  0.34018141  0.82244405     0.62000
H1096       H  0.91607688  0.39226771  0.84336983     0.12700
H1097       H  0.95648546  0.41345281  0.72144694     0.12700
C1098       C  0.91175310  0.46449162  0.74314676     0.62300
F1099       F  0.94348558  0.33888746  0.85501700    -0.22900
F1100       F  0.99570656  0.34116144  0.82841155    -0.20200
F1101       F  0.95111444  0.30963455  0.80444156    -0.19900
F1102       F  0.91982512  0.49488757  0.76174163    -0.20000
F1103       F  0.87580964  0.46272057  0.73783162    -0.20300
F1104       F  0.92773784  0.46678871  0.71043127    -0.23000
loop_ 
_geom_bond_atom_site_label_1 
_geom_bond_atom_site_label_2 
_geom_bond_distance 
_geom_bond_site_symmetry_2 
_ccdc_geom_bond_type 
O1           Cu9   1.995       .  S
O1           C11   1.276       .  A
O2           Cu9   2.001       .  S
O2           C12   1.278       .  A
O3           Cu9   1.988       .  S
O3           C13   1.276       .  A
O4           Cu9   1.993       .  S
O4           C14   1.276       .  A
O5          Cu10   2.006       .  S
O5           C14   1.276       .  A
O6          Cu10   2.004       .  S
O6           C13   1.276       .  A
O7          Cu10   2.004       .  S
O7           C12   1.275       .  A
O8          Cu10   2.006       .  S
O8           C11   1.276       .  A
Cu9         Cu10   2.370       .  S
C11        C1077   1.466       .  S
C12        C1042   1.495       .  S
C13        C1058   1.477       .  S
C14        C1090   1.472       .  S
O15         Cu23   2.002   1_556  S
O15          C25   1.276       .  A
O16         Cu23   2.001       .  S
O16          C26   1.275       .  A
O17         Cu23   2.014       .  S
O17          C27   1.280       .  A
O18         Cu23   2.019   1_556  S
O18          C28   1.278       .  A
O19         Cu24   2.007   1_556  S
O19          C28   1.278       .  A
O20         Cu24   2.001       .  S
O20          C27   1.275       .  A
O21         Cu24   1.990       .  S
O21          C26   1.277       .  A
O22         Cu24   1.991   1_556  S
O22          C25   1.275       .  A
Cu23        Cu24   2.370       .  S
C25        C1061   1.461       .  S
C26        C1026   1.477       .  S
C27        C1010   1.490       .  S
C28         C994   1.492       .  S
O29         Cu37   1.997       .  S
O29          C39   1.275       .  A
O30         Cu37   2.001       .  S
O30          C40   1.278       .  A
O31         Cu37   2.004       .  S
O31          C41   1.276       .  A
O32         Cu37   2.000       .  S
O32          C42   1.278       .  A
O33         Cu38   2.007       .  S
O33          C42   1.276       .  A
O34         Cu38   2.014       .  S
O34          C41   1.277       .  A
O35         Cu38   2.022       .  S
O35          C40   1.279       .  A
O36         Cu38   2.018       .  S
O36          C39   1.280       .  A
Cu37        Cu38   2.367       .  S
C39         C962   1.493       .  S
C40         C997   1.494       .  S
C41         C946   1.470       .  S
C42         C978   1.482       .  S
O43         Cu51   2.008       .  S
O43          C53   1.279       .  A
O44         Cu51   2.005   1_565  S
O44          C54   1.276       .  A
O45         Cu51   1.997   1_565  S
O45          C55   1.277       .  A
O46         Cu51   1.997       .  S
O46          C56   1.276       .  A
O47         Cu52   1.995       .  S
O47          C56   1.276       .  A
O48         Cu52   1.991   1_565  S
O48          C55   1.275       .  A
O49         Cu52   2.003   1_565  S
O49          C54   1.278       .  A
O50         Cu52   1.998       .  S
O50          C53   1.275       .  A
Cu51        Cu52   2.372       .  S
C53         C930   1.484       .  S
C54         C949   1.483       .  S
C55         C898   1.474       .  S
C56         C914   1.466       .  S
O57         Cu65   1.997   1_655  S
O57          C67   1.276       .  A
O58         Cu65   1.997       .  S
O58          C68   1.277       .  A
O59         Cu65   2.009       .  S
O59          C69   1.280       .  A
O60         Cu65   2.008   1_655  S
O60          C70   1.278       .  A
O61         Cu66   1.998   1_655  S
O61          C70   1.275       .  A
O62         Cu66   1.989       .  S
O62          C69   1.273       .  A
O63         Cu66   2.005       .  S
O63          C68   1.276       .  A
O64         Cu66   2.007   1_655  S
O64          C67   1.276       .  A
Cu65        Cu66   2.369       .  S
C67        C1045   1.469       .  S
C68         C866   1.478       .  S
C69         C882   1.493       .  S
C70         C853   1.478       .  S
O71         Cu79   1.991       .  S
O71          C81   1.274       .  A
O72         Cu79   1.987       .  S
O72          C82   1.274       .  A
O73         Cu79   1.990       .  S
O73          C83   1.277       .  A
O74         Cu79   1.993       .  S
O74          C84   1.278       .  A
O75         Cu80   2.008       .  S
O75          C84   1.276       .  A
O76         Cu80   2.008       .  S
O76          C83   1.276       .  A
O77         Cu80   2.000       .  S
O77          C82   1.276       .  A
O78         Cu80   2.001       .  S
O78          C81   1.278       .  A
Cu79        Cu80   2.365       .  S
C81         C901   1.483       .  S
C82         C818   1.467       .  S
C83         C837   1.491       .  S
C84         C850   1.491       .  S
O85         Cu93   1.986       .  S
O85          C95   1.273       .  A
O86         Cu93   1.984       .  S
O86          C96   1.277       .  A
O87         Cu93   2.005       .  S
O87          C97   1.278       .  A
O88         Cu93   2.013       .  S
O88          C98   1.278       .  A
O89         Cu94   2.012       .  S
O89          C98   1.277       .  A
O90         Cu94   2.012       .  S
O90          C97   1.277       .  A
O91         Cu94   2.007       .  S
O91          C96   1.275       .  A
O92         Cu94   2.010       .  S
O92          C95   1.279       .  A
Cu93        Cu94   2.362       .  S
C95         C802   1.485       .  S
C96         C917   1.491       .  S
C97         C789   1.494       .  S
C98         C773   1.488       .  S
O99        Cu107   2.013       .  S
O99         C109   1.280       .  A
O100       Cu107   2.013   1_556  S
O100        C110   1.277       .  A
O101       Cu107   2.019   1_556  S
O101        C111   1.279       .  A
O102       Cu107   2.015       .  S
O102        C112   1.277       .  A
O103       Cu108   1.993       .  S
O103        C112   1.278       .  A
O104       Cu108   1.994   1_556  S
O104        C111   1.275       .  A
O105       Cu108   2.000   1_556  S
O105        C110   1.277       .  A
O106       Cu108   1.997       .  S
O106        C109   1.274       .  A
Cu107      Cu108   2.366       .  S
C109        C738   1.493       .  S
C110        C786   1.482       .  S
C111       C1074   1.476       .  S
C112        C754   1.493       .  S
O113       Cu121   1.993       .  S
O113        C123   1.277       .  A
O114       Cu121   1.998       .  S
O114        C124   1.275       .  A
O115       Cu121   1.988       .  S
O115        C125   1.276       .  A
O116       Cu121   1.993       .  S
O116        C126   1.275       .  A
O117       Cu122   2.015       .  S
O117        C126   1.279       .  A
O118       Cu122   2.008       .  S
O118        C125   1.276       .  A
O119       Cu122   2.016       .  S
O119        C124   1.280       .  A
O120       Cu122   2.022       .  S
O120        C123   1.279       .  A
Cu121      Cu122   2.371       .  S
C123        C722   1.485       .  S
C124       C1013   1.485       .  S
C125        C706   1.468       .  S
C126        C741   1.479       .  S
O127       Cu135   1.990   1_655  S
O127        C137   1.274       .  A
O128       Cu135   1.987       .  S
O128        C138   1.277       .  A
O129       Cu135   1.992       .  S
O129        C139   1.275       .  A
O130       Cu135   1.989   1_655  S
O130        C140   1.274       .  A
O131       Cu136   2.012   1_655  S
O131        C140   1.278       .  A
O132       Cu136   2.020       .  S
O132        C139   1.278       .  A
O133       Cu136   2.010       .  S
O133        C138   1.276       .  A
O134       Cu136   2.000   1_655  S
O134        C137   1.278       .  A
Cu135      Cu136   2.370       .  S
C137        C821   1.485       .  S
C138        C693   1.485       .  S
C139        C674   1.473       .  S
C140        C709   1.470       .  S
O141       Cu149   2.015       .  S
O141        C151   1.278       .  A
O142       Cu149   2.014       .  S
O142        C152   1.277       .  A
O143       Cu149   2.010       .  S
O143        C153   1.278       .  A
O144       Cu149   2.016       .  S
O144        C154   1.278       .  A
O145       Cu150   1.993       .  S
O145        C154   1.275       .  A
O146       Cu150   1.992       .  S
O146        C153   1.275       .  A
O147       Cu150   2.002       .  S
O147        C152   1.278       .  A
O148       Cu150   2.004       .  S
O148        C151   1.277       .  A
Cu149      Cu150   2.372       .  S
C151        C642   1.473       .  S
C152        C677   1.498       .  S
C153        C658   1.474       .  S
C154        C869   1.467       .  S
O155       Cu163   2.030   1_545  S
O155        C165   1.279       .  A
O156       Cu163   2.033       .  S
O156        C166   1.283       .  A
O157       Cu163   2.010       .  S
O157        C167   1.277       .  A
O158       Cu163   2.007   1_545  S
O158        C168   1.276       .  A
O159       Cu164   2.006   1_545  S
O159        C168   1.277       .  A
O160       Cu164   2.002       .  S
O160        C167   1.276       .  A
O161       Cu164   1.989       .  S
O161        C166   1.272       .  A
O162       Cu164   1.994   1_545  S
O162        C165   1.278       .  A
Cu163      Cu164   2.366       .  S
C165        C770   1.496       .  S
C166        C645   1.499       .  S
C167        C965   1.476       .  S
C168        C626   1.473       .  S
O169       Cu177   1.990   1_565  S
O169        C179   1.274       .  A
O170       Cu177   1.998       .  S
O170        C180   1.278       .  A
O171       Cu177   2.002       .  S
O171        C181   1.276       .  A
O172       Cu177   1.996   1_565  S
O172        C182   1.277       .  A
O173       Cu178   2.006   1_565  S
O173        C182   1.276       .  A
O174       Cu178   2.015       .  S
O174        C181   1.278       .  A
O175       Cu178   2.014       .  S
O175        C180   1.277       .  A
O176       Cu178   2.012   1_565  S
O176        C179   1.280       .  A
Cu177      Cu178   2.369       .  S
C179        C594   1.483       .  S
C180        C578   1.491       .  S
C181        C613   1.474       .  S
C182        C834   1.476       .  S
O183       Cu191   1.991       .  S
O183        C193   1.274       .  A
O184       Cu191   1.992       .  S
O184        C194   1.274       .  A
O185       Cu191   1.997       .  S
O185        C195   1.275       .  A
O186       Cu191   1.998       .  S
O186        C196   1.276       .  A
O187       Cu192   2.006       .  S
O187        C196   1.276       .  A
O188       Cu192   2.005       .  S
O188        C195   1.276       .  A
O189       Cu192   2.010       .  S
O189        C194   1.279       .  A
O190       Cu192   2.017       .  S
O190        C193   1.280       .  A
Cu191      Cu192   2.372       .  S
C193        C549   1.488       .  S
C194        C597   1.483       .  S
C195       C1029   1.464       .  S
C196        C562   1.469       .  S
O197       Cu205   2.007       .  S
O197        C207   1.276       .  A
O198       Cu205   2.005       .  S
O198        C208   1.276       .  A
O199       Cu205   2.016       .  S
O199        C209   1.277       .  A
O200       Cu205   2.022       .  S
O200        C210   1.281       .  A
O201       Cu206   1.991       .  S
O201        C210   1.274       .  A
O202       Cu206   1.997       .  S
O202        C209   1.278       .  A
O203       Cu206   2.003       .  S
O203        C208   1.277       .  A
O204       Cu206   2.002       .  S
O204        C207   1.277       .  A
Cu205      Cu206   2.369       .  S
C207        C885   1.470       .  S
C208        C530   1.473       .  S
C209        C498   1.498       .  S
C210        C514   1.484       .  S
O211       Cu219   2.002   1_556  S
O211        C221   1.276       .  A
O212       Cu219   1.999       .  S
O212        C222   1.275       .  A
O213       Cu219   2.003       .  S
O213        C223   1.278       .  A
O214       Cu219   2.003       .  S
O214        C224   1.276   1_554  A
O215       Cu220   2.010   1_556  S
O215        C224   1.277       .  A
O216       Cu220   2.011       .  S
O216        C223   1.277       .  A
O217       Cu220   2.010       .  S
O217        C222   1.279       .  A
O218       Cu220   2.011   1_556  S
O218        C221   1.279       .  A
Cu219      Cu220   2.369       .  S
C221        C517   1.490       .  S
C222        C546   1.485       .  S
C223        C482   1.484       .  S
C224        C981   1.469       .  S
O225       Cu233   1.997       .  S
O225        C235   1.275       .  A
O226       Cu233   2.000       .  S
O226        C236   1.277       .  A
O227       Cu233   2.000       .  S
O227        C237   1.278       .  A
O228       Cu233   1.993       .  S
O228        C238   1.273       .  A
O229       Cu234   2.015       .  S
O229        C238   1.280       .  A
O230       Cu234   2.014       .  S
O230        C237   1.277       .  A
O231       Cu234   1.999       .  S
O231        C236   1.275       .  A
O232       Cu234   2.000       .  S
O232        C235   1.277       .  A
Cu233      Cu234   2.364       .  S
C235        C450   1.474       .  S
C236        C690   1.484       .  S
C237        C485   1.492       .  S
C238        C466   1.495       .  S
O239       Cu247   1.994       .  S
O239        C249   1.274       .  A
O240       Cu247   2.001   1_556  S
O240        C250   1.276       .  A
O241       Cu247   2.005   1_556  S
O241        C251   1.276       .  A
O242       Cu247   2.006       .  S
O242        C252   1.276       .  A
O243       Cu248   2.012       .  S
O243        C252   1.278       .  A
O244       Cu248   2.016   1_556  S
O244        C251   1.278       .  A
O245       Cu248   2.000   1_556  S
O245        C250   1.277       .  A
O246       Cu248   2.003       .  S
O246        C249   1.279       .  A
Cu247      Cu248   2.370       .  S
C249        C453   1.490       .  S
C250        C805   1.478       .  S
C251        C533   1.476       .  S
C252        C434   1.476       .  S
O253       Cu261   2.010       .  S
O253        C263   1.277       .  A
O254       Cu261   2.004       .  S
O254        C264   1.279       .  A
O255       Cu261   1.999       .  S
O255        C265   1.274       .  A
O256       Cu261   1.998       .  S
O256        C266   1.277       .  A
O257       Cu262   2.020       .  S
O257        C266   1.278       .  A
O258       Cu262   2.015       .  S
O258        C265   1.280       .  A
O259       Cu262   2.006       .  S
O259        C264   1.275       .  A
O260       Cu262   2.008       .  S
O260        C263   1.277       .  A
Cu261      Cu262   2.366       .  S
C263        C757   1.472       .  S
C264        C421   1.494       .  S
C265        C437   1.499       .  S
C266        C610   1.477       .  S
O267       Cu275   2.011       .  S
O267        C277   1.276   1_455  A
O268       Cu275   2.018       .  S
O268        C278   1.280       .  A
O269       Cu275   2.016       .  S
O269        C279   1.278       .  A
O270       Cu275   2.006       .  S
O270        C280   1.276   1_455  A
O271       Cu276   2.003       .  S
O271        C280   1.278   1_455  A
O272       Cu276   2.007       .  S
O272        C279   1.277       .  A
O273       Cu276   1.994       .  S
O273        C278   1.275       .  A
O274       Cu276   1.996       .  S
O274        C277   1.278   1_455  A
Cu275      Cu276   2.366       .  S
C277       C1093   1.495       .  S
C278        C402   1.484       .  S
C279        C501   1.476       .  S
C280        C389   1.488       .  S
O281       Cu289   2.002       .  S
O281        C291   1.278       .  A
O282       Cu289   2.002       .  S
O282        C292   1.278       .  A
O283       Cu289   2.008       .  S
O283        C293   1.276       .  A
O284       Cu289   2.004       .  S
O284        C294   1.276       .  A
O285       Cu290   2.005       .  S
O285        C294   1.279       .  A
O286       Cu290   2.010       .  S
O286        C293   1.277       .  A
O287       Cu290   1.997       .  S
O287        C292   1.275       .  A
O288       Cu290   1.998       .  S
O288        C291   1.275       .  A
Cu289      Cu290   2.370       .  S
C291        C933   1.482       .  S
C292        C370   1.482       .  S
C293        C581   1.470       .  S
C294        C386   1.486       .  S
O295       Cu303   2.001       .  S
O295        C305   1.276       .  A
O296       Cu303   2.006       .  S
O296        C306   1.277       .  A
O297       Cu303   2.003       .  S
O297        C307   1.276       .  A
O298       Cu303   1.998       .  S
O298        C308   1.274       .  A
O299       Cu304   2.019       .  S
O299        C308   1.281       .  A
O300       Cu304   2.015       .  S
O300        C307   1.280       .  A
O301       Cu304   2.011       .  S
O301        C306   1.277       .  A
O302       Cu304   2.006       .  S
O302        C305   1.277       .  A
Cu303      Cu304   2.367       .  S
C305        C338   1.475       .  S
C306        C629   1.474       .  S
C307        C405   1.491       .  S
C308        C357   1.498       .  S
O309       Cu317   1.999       .  S
O309        C319   1.277       .  A
O310       Cu317   2.003   1_565  S
O310        C320   1.275       .  A
O311       Cu317   1.998   1_565  S
O311        C321   1.278       .  A
O312       Cu317   1.999       .  S
O312        C322   1.275       .  A
O313       Cu318   2.015   1_545  S
O313        C322   1.279       .  A
O314       Cu318   2.009       .  S
O314        C321   1.276       .  A
O315       Cu318   2.006       .  S
O315        C320   1.279       .  A
O316       Cu318   2.009   1_545  S
O316        C319   1.277       .  A
Cu317      Cu318   2.366   1_545  S
C319        C418   1.480       .  S
C320        C661   1.489       .  S
C321        C565   1.496       .  S
C322        C354   1.478       .  S
O323       Cu331   2.002       .  S
O323        C333   1.275       .  A
O324       Cu331   2.012   1_655  S
O324        C334   1.279       .  A
O325       Cu331   2.000   1_655  S
O325        C335   1.275       .  A
O326       Cu331   2.006       .  S
O326        C336   1.276       .  A
O327       Cu332   2.004       .  S
O327        C336   1.277       .  A
O328       Cu332   1.999   1_655  S
O328        C335   1.277       .  A
O329       Cu332   2.004   1_655  S
O329        C334   1.276       .  A
O330       Cu332   2.003       .  S
O330        C333   1.279       .  A
Cu331      Cu332   2.365       .  S
C333        C341   1.494       .  S
C334        C725   1.492       .  S
C335        C373   1.484       .  S
C336        C469   1.475       .  S
C337        C338   1.399       .  A
C337        C342   1.406       .  A
C337        H344   1.083       .  S
C338        C339   1.414       .  A
C339        C340   1.404       .  A
C339        C346   1.520       .  S
C340        C341   1.410       .  A
C340        H345   1.082       .  S
C341        C342   1.427       .  A
C342        C343   1.521       .  S
C343        F347   1.383       .  S
C343        F348   1.383       .  S
C343        F349   1.385       .  S
C346        F350   1.382       .  S
C346        F351   1.383       .  S
C346        F352   1.385       .  S
C353        C354   1.399       .  A
C353        C358   1.407       .  A
C353        H360   1.083       .  S
C354        C355   1.414       .  A
C355        C356   1.407       .  A
C355        C362   1.520       .  S
C356        C357   1.411       .  A
C356        H361   1.082       .  S
C357        C358   1.429       .  A
C358        C359   1.522       .  S
C359        F363   1.385       .  S
C359        F364   1.383       .  S
C359        F365   1.383       .  S
C362        F366   1.384       .  S
C362        F367   1.382       .  S
C362        F368   1.385       .  S
C369        C370   1.405       .  A
C369        C374   1.404       .  A
C369        H376   1.081       .  S
C370        C371   1.419       .  A
C371        C372   1.405       .  A
C371        C378   1.521       .  S
C372        C373   1.406       .  A
C372        H377   1.082       .  S
C373        C374   1.420       .  A
C374        C375   1.521       .  S
C375        F379   1.385       .  S
C375        F380   1.384       .  S
C375        F381   1.383       .  S
C378        F382   1.384       .  S
C378        F383   1.383       .  S
C378        F384   1.385       .  S
C385        C386   1.405       .  A
C385        C390   1.406       .  A
C385        H392   1.082       .  S
C386        C387   1.421       .  A
C387        C388   1.406       .  A
C387        C394   1.521       .  S
C388        C389   1.406       .  A
C388        H393   1.082       .  S
C389        C390   1.421       .  A
C390        C391   1.520       .  S
C391        F395   1.385       .  S
C391        F396   1.383       .  S
C391        F397   1.383   1_655  S
C394        F398   1.383       .  S
C394        F399   1.383       .  S
C394        F400   1.385       .  S
C401        C402   1.403       .  A
C401        C406   1.407       .  A
C401        H408   1.081       .  S
C402        C403   1.418       .  A
C403        C404   1.407       .  A
C403        C410   1.520       .  S
C404        C405   1.407       .  A
C404        H409   1.082       .  S
C405        C406   1.423       .  A
C406        C407   1.521       .  S
C407        F411   1.385       .  S
C407        F412   1.384       .  S
C407        F413   1.383       .  S
C410        F414   1.384       .  S
C410        F415   1.383       .  S
C410        F416   1.384       .  S
C417        C418   1.401       .  A
C417        C422   1.407       .  A
C417        H424   1.083       .  S
C418        C419   1.416       .  A
C419        C420   1.405       .  A
C419        C426   1.520       .  S
C420        C421   1.409       .  A
C420        H425   1.082       .  S
C421        C422   1.426       .  A
C422        C423   1.521       .  S
C423        F427   1.385       .  S
C423        F428   1.383       .  S
C423        F429   1.383       .  S
C426        F430   1.383       .  S
C426        F431   1.383       .  S
C426        F432   1.385       .  S
C433        C434   1.398       .  A
C433        C438   1.408       .  A
C433        H440   1.084       .  S
C434        C435   1.412       .  A
C435        C436   1.405       .  A
C435        C442   1.517       .  S
C436        C437   1.410       .  A
C436        H441   1.082       .  S
C437        C438   1.430       .  A
C438        C439   1.522       .  S
C439        F443   1.383       .  S
C439        F444   1.383       .  S
C439        F445   1.385       .  S
C442        F446   1.385       .  S
C442        F447   1.384       .  S
C442        F448   1.382       .  S
C449        C450   1.399       .  A
C449        C454   1.404       .  A
C449        H456   1.083       .  S
C450        C451   1.413       .  A
C451        C452   1.403       .  A
C451        C458   1.519       .  S
C452        C453   1.409       .  A
C452        H457   1.083       .  S
C453        C454   1.426       .  A
C454        C455   1.521       .  S
C455        F459   1.383       .  S
C455        F460   1.381       .  S
C455        F461   1.385       .  S
C458        F462   1.382       .  S
C458        F463   1.383       .  S
C458        F464   1.385       .  S
C465        C466   1.411       .  A
C465        C470   1.407       .  A
C465        H472   1.082       .  S
C466        C467   1.428       .  A
C467        C468   1.405       .  A
C467        C474   1.522       .  S
C468        C469   1.398       .  A
C468        H473   1.083       .  S
C469        C470   1.413       .  A
C470        C471   1.519       .  S
C471        F475   1.385       .  S
C471        F476   1.384       .  S
C471        F477   1.382       .  S
C474        F478   1.382       .  S
C474        F479   1.383       .  S
C474        F480   1.385       .  S
C481        C482   1.404       .  A
C481        C486   1.407       .  A
C481        H488   1.082       .  S
C482        C483   1.418       .  A
C483        C484   1.407       .  A
C483        C490   1.521       .  S
C484        C485   1.408       .  A
C484        H489   1.082       .  S
C485        C486   1.423       .  A
C486        C487   1.521       .  S
C487        F491   1.385       .  S
C487        F492   1.382       .  S
C487        F493   1.383       .  S
C490        F494   1.384       .  S
C490        F495   1.383       .  S
C490        F496   1.385       .  S
C497        C498   1.410       .  A
C497        C502   1.403       .  A
C497        H504   1.081       .  S
C498        C499   1.427       .  A
C499        C500   1.411       .  A
C499        C506   1.520       .  S
C500        C501   1.400       .  A
C500        H505   1.082       .  S
C501        C502   1.412       .  A
C502        C503   1.517       .  S
C503        F507   1.385       .  S
C503        F508   1.382       .  S
C503        F509   1.383       .  S
C506        F510   1.384       .  S
C506        F511   1.383       .  S
C506        F512   1.385       .  S
C513        C514   1.403       .  A
C513        C518   1.407       .  A
C513        H520   1.083       .  S
C514        C515   1.419       .  A
C515        C516   1.406       .  A
C515        C522   1.520       .  S
C516        C517   1.406       .  A
C516        H521   1.082       .  S
C517        C518   1.423       .  A
C518        C519   1.520       .  S
C519        F523   1.385       .  S
C519        F524   1.383       .  S
C519        F525   1.384       .  S
C522        F526   1.382       .  S
C522        F527   1.383       .  S
C522        F528   1.385       .  S
C529        C530   1.401       .  A
C529        C534   1.405       .  A
C529        H536   1.084       .  S
C530        C531   1.416       .  A
C531        C532   1.409       .  A
C531        C538   1.518       .  S
C532        C533   1.403       .  A
C532        H537   1.083       .  S
C533        C534   1.418       .  A
C534        C535   1.520   1_556  S
C535        F539   1.385       .  S
C535        F540   1.382       .  S
C535        F541   1.382       .  S
C538        F542   1.382       .  S
C538        F543   1.384       .  S
C538        F544   1.384       .  S
C545        C546   1.403       .  A
C545        C550   1.405       .  A
C545        H552   1.083       .  S
C546        C547   1.419       .  A
C547        C548   1.407       .  A
C547        C554   1.520       .  S
C548        C549   1.406       .  A
C548        H553   1.083       .  S
C549        C550   1.422       .  A
C550        C551   1.521       .  S
C551        F555   1.385       .  S
C551        F556   1.383       .  S
C551        F557   1.383       .  S
C554        F558   1.383       .  S
C554        F559   1.384       .  S
C554        F560   1.385       .  S
C561        C562   1.398       .  A
C561        C566   1.408       .  A
C561        H568   1.083       .  S
C562        C563   1.410       .  A
C563        C564   1.403       .  A
C563        C570   1.520       .  S
C564        C565   1.412       .  A
C564        H569   1.082       .  S
C565        C566   1.428       .  A
C566        C567   1.522       .  S
C567        F571   1.385       .  S
C567        F572   1.382       .  S
C567        F573   1.383       .  S
C570        F574   1.383       .  S
C570        F575   1.382       .  S
C570        F576   1.385       .  S
C577        C578   1.409       .  A
C577        C582   1.402       .  A
C577        H584   1.082       .  S
C578        C579   1.425       .  A
C579        C580   1.411       .  A
C579        C586   1.519       .  S
C580        C581   1.399       .  A
C580        H585   1.083       .  S
C581        C582   1.410       .  A
C582        C583   1.518       .  S
C583        F587   1.384       .  S
C583        F588   1.382       .  S
C583        F589   1.383       .  S
C586        F590   1.384       .  S
C586        F591   1.383       .  S
C586        F592   1.385       .  S
C593        C594   1.403       .  A
C593        C598   1.403       .  A
C593        H600   1.092       .  S
C594        C595   1.421       .  A
C595        C596   1.404       .  A
C595        C602   1.520       .  S
C596        C597   1.404       .  A
C596        H601   1.083       .  S
C597        C598   1.421       .  A
C598        C599   1.520       .  S
C599        F603   1.385       .  S
C599        F604   1.383       .  S
C599        F605   1.384       .  S
C602        F606   1.383       .  S
C602        F607   1.383       .  S
C602        F608   1.385       .  S
C609        C610   1.402       .  A
C609        C614   1.403       .  A
C609        H616   1.083       .  S
C610        C611   1.417       .  A
C611        C612   1.410       .  A
C611        C618   1.516       .  S
C612        C613   1.403       .  A
C612        H617   1.083       .  S
C613        C614   1.416       .  A
C614        C615   1.520       .  S
C615        F619   1.385       .  S
C615        F620   1.382       .  S
C615        F621   1.381   1_545  S
C618        F622   1.382       .  S
C618        F623   1.383       .  S
C618        F624   1.385       .  S
C625        C626   1.400       .  A
C625        C630   1.403       .  A
C625        H632   1.083       .  S
C626        C627   1.416       .  A
C627        C628   1.410       .  A
C627        C634   1.518       .  S
C628        C629   1.404       .  A
C628        H633   1.082       .  S
C629        C630   1.416       .  A
C630        C631   1.519       .  S
C631        F635   1.384       .  S
C631        F636   1.382       .  S
C631        F637   1.382       .  S
C634        F638   1.384       .  S
C634        F639   1.382       .  S
C634        F640   1.384       .  S
C641        C642   1.397       .  A
C641        C646   1.408       .  A
C641        H648   1.083       .  S
C642        C643   1.409       .  A
C643        C644   1.408       .  A
C643        C650   1.516       .  S
C644        C645   1.411       .  A
C644        H649   1.082       .  S
C645        C646   1.432       .  A
C646        C647   1.524       .  S
C647        F651   1.385       .  S
C647        F652   1.383       .  S
C647        F653   1.384       .  S
C650        F654   1.383       .  S
C650        F655   1.382       .  S
C650        F656   1.384       .  S
C657        C658   1.400       .  A
C657        C662   1.406       .  A
C657        H664   1.083       .  S
C658        C659   1.415       .  A
C659        C660   1.404       .  A
C659        C666   1.521       .  S
C660        C661   1.408       .  A
C660        H665   1.082       .  S
C661        C662   1.425       .  A
C662        C663   1.520       .  S
C663        F667   1.385       .  S
C663        F668   1.383       .  S
C663        F669   1.384       .  S
C666        F670   1.382       .  S
C666        F671   1.384       .  S
C666        F672   1.385       .  S
C673        C674   1.399       .  A
C673        C678   1.408       .  A
C673        H680   1.084       .  S
C674        C675   1.411       .  A
C675        C676   1.405       .  A
C675        C682   1.519       .  S
C676        C677   1.412       .  A
C676        H681   1.082       .  S
C677        C678   1.428       .  A
C678        C679   1.521       .  S
C679        F683   1.385       .  S
C679        F684   1.383       .  S
C679        F685   1.383       .  S
C682        F686   1.383       .  S
C682        F687   1.383       .  S
C682        F688   1.385       .  S
C689        C690   1.406       .  A
C689        C694   1.407       .  A
C689        H696   1.082       .  S
C690        C691   1.420       .  A
C691        C692   1.402       .  A
C691        C698   1.523       .  S
C692        C693   1.405       .  A
C692        H697   1.082       .  S
C693        C694   1.421       .  A
C694        C695   1.521       .  S
C695        F699   1.385       .  S
C695        F700   1.382       .  S
C695        F701   1.384       .  S
C698        F702   1.382       .  S
C698        F703   1.384       .  S
C698        F704   1.385       .  S
C705        C706   1.400       .  A
C705        C710   1.400       .  A
C705        H712   1.084       .  S
C706        C707   1.413       .  A
C707        C708   1.407       .  A
C707        C714   1.517       .  S
C708        C709   1.404       .  A
C708        H713   1.083       .  S
C709        C710   1.417       .  A
C710        C711   1.521       .  S
C711        F715   1.385   1_655  S
C711        F716   1.383   1_655  S
C711        F717   1.382   1_655  S
C714        F718   1.383       .  S
C714        F719   1.382       .  S
C714        F720   1.384       .  S
C721        C722   1.403       .  A
C721        C726   1.406       .  A
C721        H728   1.083       .  S
C722        C723   1.419       .  A
C723        C724   1.408       .  A
C723        C730   1.520       .  S
C724        C725   1.408       .  A
C724        H729   1.083       .  S
C725        C726   1.423       .  A
C726        C727   1.521       .  S
C727        F731   1.385       .  S
C727        F732   1.383       .  S
C727        F733   1.383   1_655  S
C730        F734   1.383       .  S
C730        F735   1.383       .  S
C730        F736   1.385       .  S
C737        C738   1.408       .  A
C737        C742   1.404       .  A
C737        H744   1.082       .  S
C738        C739   1.426       .  A
C739        C740   1.408       .  A
C739        C746   1.522       .  S
C740        C741   1.402       .  A
C740        H745   1.083       .  S
C741        C742   1.416       .  A
C742        C743   1.520       .  S
C743        F747   1.385       .  S
C743        F748   1.384       .  S
C743        F749   1.382       .  S
C746        F750   1.384       .  S
C746        F751   1.383       .  S
C746        F752   1.385       .  S
C753        C754   1.407       .  A
C753        C758   1.399       .  A
C753        H760   1.082       .  S
C754        C755   1.427       .  A
C755        C756   1.413       .  A
C755        C762   1.519       .  S
C756        C757   1.400       .  A
C756        H761   1.083       .  S
C757        C758   1.411       .  A
C758        C759   1.519       .  S
C759        F763   1.385       .  S
C759        F764   1.382       .  S
C759        F765   1.381       .  S
C762        F766   1.384       .  S
C762        F767   1.383       .  S
C762        F768   1.385       .  S
C769        C770   1.407       .  A
C769        C774   1.404       .  A
C769        H776   1.082       .  S
C770        C771   1.423       .  A
C771        C772   1.413       .  A
C771        C778   1.519       .  S
C772        C773   1.406       .  A
C772        H777   1.083       .  S
C773        C774   1.419       .  A
C774        C775   1.521       .  S
C775        F779   1.385       .  S
C775        F780   1.383       .  S
C775        F781   1.382       .  S
C778        F782   1.383       .  S
C778        F783   1.383       .  S
C778        F784   1.385       .  S
C785        C786   1.402       .  A
C785        C790   1.407       .  A
C785        H792   1.083       .  S
C786        C787   1.417       .  A
C787        C788   1.407       .  A
C787        C794   1.521       .  S
C788        C789   1.409       .  A
C788        H793   1.082       .  S
C789        C790   1.424       .  A
C790        C791   1.521       .  S
C791        F795   1.385       .  S
C791        F796   1.384       .  S
C791        F797   1.383       .  S
C794        F798   1.384   1_556  S
C794        F799   1.383       .  S
C794        F800   1.385       .  S
C801        C802   1.407       .  A
C801        C806   1.405       .  A
C801        H808   1.082       .  S
C802        C803   1.422       .  A
C803        C804   1.404       .  A
C803        C810   1.522       .  S
C804        C805   1.403       .  A
C804        H809   1.082       .  S
C805        C806   1.417       .  A
C806        C807   1.520       .  S
C807        F811   1.385       .  S
C807        F812   1.382       .  S
C807        F813   1.384       .  S
C810        F814   1.383       .  S
C810        F815   1.384       .  S
C810        F816   1.385       .  S
C817        C818   1.399       .  A
C817        C822   1.404       .  A
C817        H824   1.082       .  S
C818        C819   1.412       .  A
C819        C820   1.402       .  A
C819        C826   1.520       .  S
C820        C821   1.408       .  A
C820        H825   1.082       .  S
C821        C822   1.425       .  A
C822        C823   1.521       .  S
C823        F827   1.385       .  S
C823        F828   1.383       .  S
C823        F829   1.384       .  S
C826        F830   1.382       .  S
C826        F831   1.384       .  S
C826        F832   1.385       .  S
C833        C834   1.401       .  A
C833        C838   1.404       .  A
C833        H840   1.082       .  S
C834        C835   1.414       .  A
C835        C836   1.405       .  A
C835        C842   1.521       .  S
C836        C837   1.411       .  A
C836        H841   1.082       .  S
C837        C838   1.424       .  A
C838        C839   1.522       .  S
C839        F843   1.385       .  S
C839        F844   1.383       .  S
C839        F845   1.384       .  S
C842        F846   1.384       .  S
C842        F847   1.383       .  S
C842        F848   1.385       .  S
C849        C850   1.407       .  A
C849        C854   1.402       .  A
C849        H856   1.082       .  S
C850        C851   1.424       .  A
C851        C852   1.408       .  A
C851        C858   1.521       .  S
C852        C853   1.402       .  A
C852        H857   1.083       .  S
C853        C854   1.417       .  A
C854        C855   1.522       .  S
C855        F859   1.385       .  S
C855        F860   1.383   1_655  S
C855        F861   1.382       .  S
C858        F862   1.383       .  S
C858        F863   1.383       .  S
C858        F864   1.385       .  S
C865        C866   1.403       .  A
C865        C870   1.401       .  A
C865        H872   1.085       .  S
C866        C867   1.421       .  A
C867        C868   1.408       .  A
C867        C874   1.519       .  S
C868        C869   1.399       .  A
C868        H873   1.083       .  S
C869        C870   1.413       .  A
C870        C871   1.518       .  S
C871        F875   1.384       .  S
C871        F876   1.383       .  S
C871        F877   1.382       .  S
C874        F878   1.383       .  S
C874        F879   1.382       .  S
C874        F880   1.384       .  S
C881        C882   1.410       .  A
C881        C886   1.404       .  A
C881        H888   1.082       .  S
C882        C883   1.429       .  A
C883        C884   1.406       .  A
C883        C890   1.523       .  S
C884        C885   1.396       .  A
C884        H889   1.083       .  S
C885        C886   1.412       .  A
C886        C887   1.519       .  S
C887        F891   1.385       .  S
C887        F892   1.382       .  S
C887        F893   1.382       .  S
C890        F894   1.383       .  S
C890        F895   1.383       .  S
C890        F896   1.385       .  S
C897        C898   1.402       .  A
C897        C902   1.404       .  A
C897        H904   1.083       .  S
C898        C899   1.416       .  A
C899        C900   1.402       .  A
C899        C906   1.521       .  S
C900        C901   1.406       .  A
C900        H905   1.083       .  S
C901        C902   1.422       .  A
C902        C903   1.521       .  S
C903        F907   1.385       .  S
C903        F908   1.383       .  S
C903        F909   1.384       .  S
C906        F910   1.382       .  S
C906        F911   1.384       .  S
C906        F912   1.385       .  S
C913        C914   1.399       .  A
C913        C918   1.407       .  A
C913        H920   1.084       .  S
C914        C915   1.410       .  A
C915        C916   1.398       .  A
C915        C922   1.521       .  S
C916        C917   1.410       .  A
C916        H921   1.082       .  S
C917        C918   1.427       .  A
C918        C919   1.522       .  S
C919        F923   1.385       .  S
C919        F924   1.383       .  S
C919        F925   1.382       .  S
C922        F926   1.382       .  S
C922        F927   1.382       .  S
C922        F928   1.385       .  S
C929        C930   1.406       .  A
C929        C934   1.405       .  A
C929        H936   1.083       .  S
C930        C931   1.421       .  A
C931        C932   1.403       .  A
C931        C938   1.521       .  S
C932        C933   1.403       .  A
C932        H937   1.082       .  S
C933        C934   1.419       .  A
C934        C935   1.520       .  S
C935        F939   1.385       .  S
C935        F940   1.384       .  S
C935        F941   1.383       .  S
C938        F942   1.383       .  S
C938        F943   1.383       .  S
C938        F944   1.385       .  S
C945        C946   1.400       .  A
C945        C950   1.409       .  A
C945        H952   1.083       .  S
C946        C947   1.413       .  A
C947        C948   1.402       .  A
C947        C954   1.517       .  S
C948        C949   1.404       .  A
C948        H953   1.083       .  S
C949        C950   1.422       .  A
C950        C951   1.519       .  S
C951        F955   1.385       .  S
C951        F956   1.382       .  S
C951        F957   1.384       .  S
C954        F958   1.382       .  S
C954        F959   1.383       .  S
C954        F960   1.385       .  S
C961        C962   1.408       .  A
C961        C966   1.406       .  A
C961        H968   1.082       .  S
C962        C963   1.426       .  A
C963        C964   1.407       .  A
C963        C970   1.521       .  S
C964        C965   1.400       .  A
C964        H969   1.083       .  S
C965        C966   1.414       .  A
C966        C967   1.520       .  S
C967        F971   1.384       .  S
C967        F972   1.382       .  S
C967        F973   1.384       .  S
C970        F974   1.383       .  S
C970        F975   1.384       .  S
C970        F976   1.385       .  S
C977        C978   1.405       .  A
C977        C982   1.402       .  A
C977        H984   1.083       .  S
C978        C979   1.422       .  A
C979        C980   1.409       .  A
C979        C986   1.519       .  S
C980        C981   1.400       .  A
C980        H985   1.084       .  S
C981        C982   1.411       .  A
C982        C983   1.518   1_556  S
C983        F987   1.385       .  S
C983        F988   1.383       .  S
C983        F989   1.381       .  S
C986        F990   1.383       .  S
C986        F991   1.384       .  S
C986        F992   1.385       .  S
C993        C994   1.406       .  A
C993        C998   1.409       .  A
C993       H1000   1.083       .  S
C994        C995   1.421       .  A
C995        C996   1.408       .  A
C995       C1002   1.521       .  S
C996        C997   1.407       .  A
C996       H1001   1.083       .  S
C997        C998   1.422       .  A
C998        C999   1.521       .  S
C999       F1003   1.385       .  S
C999       F1004   1.383       .  S
C999       F1005   1.384       .  S
C1002      F1006   1.383       .  S
C1002      F1007   1.384   1_556  S
C1002      F1008   1.385       .  S
C1009      C1010   1.405       .  A
C1009      C1014   1.406       .  A
C1009      H1016   1.083       .  S
C1010      C1011   1.422       .  A
C1011      C1012   1.407       .  A
C1011      C1018   1.520       .  S
C1012      C1013   1.404       .  A
C1012      H1017   1.083       .  S
C1013      C1014   1.420       .  A
C1014      C1015   1.521       .  S
C1015      F1019   1.385       .  S
C1015      F1020   1.382       .  S
C1015      F1021   1.382       .  S
C1018      F1022   1.383       .  S
C1018      F1023   1.384       .  S
C1018      F1024   1.385       .  S
C1025      C1026   1.403       .  A
C1025      C1030   1.397       .  A
C1025      H1032   1.083       .  S
C1026      C1027   1.422       .  A
C1027      C1028   1.409       .  A
C1027      C1034   1.519       .  S
C1028      C1029   1.400       .  A
C1028      H1033   1.083       .  S
C1029      C1030   1.411       .  A
C1030      C1031   1.518       .  S
C1031      F1035   1.384       .  S
C1031      F1036   1.382       .  S
C1031      F1037   1.381       .  S
C1034      F1038   1.383       .  S
C1034      F1039   1.384       .  S
C1034      F1040   1.385       .  S
C1041      C1042   1.411       .  A
C1041      C1046   1.404       .  A
C1041      H1048   1.082       .  S
C1042      C1043   1.428       .  A
C1043      C1044   1.407       .  A
C1043      C1050   1.521       .  S
C1044      C1045   1.397       .  A
C1044      H1049   1.083       .  S
C1045      C1046   1.411       .  A
C1046      C1047   1.520   1_655  S
C1047      F1051   1.385       .  S
C1047      F1052   1.382       .  S
C1047      F1053   1.383       .  S
C1050      F1054   1.383       .  S
C1050      F1055   1.383       .  S
C1050      F1056   1.385       .  S
C1057      C1058   1.406       .  A
C1057      C1062   1.400       .  A
C1057      H1064   1.084       .  S
C1058      C1059   1.421       .  A
C1059      C1060   1.406       .  A
C1059      C1066   1.518       .  S
C1060      C1061   1.398       .  A
C1060      H1065   1.084       .  S
C1061      C1062   1.410       .  A
C1062      C1063   1.519   1_556  S
C1063      F1067   1.385       .  S
C1063      F1068   1.383       .  S
C1063      F1069   1.382       .  S
C1066      F1070   1.383       .  S
C1066      F1071   1.383       .  S
C1066      F1072   1.385       .  S
C1073      C1074   1.407       .  A
C1073      C1078   1.409       .  A
C1073      H1080   1.083       .  S
C1074      C1075   1.420       .  A
C1075      C1076   1.401       .  A
C1075      C1082   1.521       .  S
C1076      C1077   1.398       .  A
C1076      H1081   1.085       .  S
C1077      C1078   1.411       .  A
C1078      C1079   1.516       .  S
C1079      F1083   1.384       .  S
C1079      F1084   1.383       .  S
C1079      F1085   1.383       .  S
C1082      F1086   1.382   1_556  S
C1082      F1087   1.382       .  S
C1082      F1088   1.385   1_556  S
C1089      C1090   1.399       .  A
C1089      C1094   1.406       .  A
C1089      H1096   1.082       .  S
C1090      C1091   1.412       .  A
C1091      C1092   1.404       .  A
C1091      C1098   1.521       .  S
C1092      C1093   1.411       .  A
C1092      H1097   1.080       .  S
C1093      C1094   1.427       .  A
C1094      C1095   1.521       .  S
C1095      F1099   1.385       .  S
C1095      F1100   1.380       .  S
C1095      F1101   1.383       .  S
C1098      F1102   1.383       .  S
C1098      F1103   1.383       .  S
C1098      F1104   1.385       .  S
