geometry optimzed in LAMMPS
_audit_creation_date              2020-11-30 
_audit_creation_method            'lammps2cif' 
_symmetry_space_group_name_H-M    'P1' 
_symmetry_Int_Tables_number       1 
_symmetry_cell_setting            triclinic 
loop_ 
_symmetry_equiv_pos_as_xyz 
  x,y,z 
_cell_length_a                    36.32076416 
_cell_length_b                    36.09046555545354 
_cell_length_c                    43.16379018856641 
_cell_angle_alpha                 89.96075270018191 
_cell_angle_beta                  89.16206301509229 
_cell_angle_gamma                 90.03685271548206 
loop_ 
_atom_site_label 
_atom_site_type_symbol 
_atom_site_fract_x 
_atom_site_fract_y 
_atom_site_fract_z 
_atom_site_charge 
C1          C  0.86746044  0.37099996  0.01972394     0.30200
C2          C  0.86795370  0.37543999  0.45670795     0.30200
C3          C  0.83035179  0.38061119  0.00443988    -0.06000
C4          C  0.89325388  0.40097995  0.00649562    -0.06800
C5          C  0.87900882  0.33608370  0.00132319    -0.06600
C6          C  0.83063154  0.38402544  0.47291449    -0.06000
C7          C  0.89423873  0.40058714  0.47478777    -0.06700
C8          C  0.87698807  0.33691391  0.46917959    -0.06600
C9          C  0.79574140  0.39454264  0.46422986    -0.32000
N10         N  0.77389817  0.39458478  0.98834901     0.14500
C11         C  0.79421159  0.38628888  0.01368441    -0.32000
H12         H  0.78322858  0.38375603  0.03700703     0.16400
C13         C  0.91941710  0.42800215  0.46802677    -0.31000
N14         N  0.93523631  0.43931881  0.49467131     0.13200
C15         C  0.91773989  0.42641217  0.01832827    -0.31000
C16         C  0.88642598  0.30346428  0.45619957    -0.31300
N17         N  0.89444828  0.28157247  0.98022040     0.13700
H18         H  0.89080731  0.29845964  0.43172907     0.16300
C19         C  0.88680878  0.29933429  0.00739136    -0.31300
H20         H  0.88581987  0.28613829  0.02987220     0.16300
H21         H  0.92504766  0.42957990  0.04240470     0.16300
H22         H  0.78732132  0.40161712  0.44105142     0.16400
H23         H  0.92570388  0.43954168  0.44543546     0.16300
C24         C  0.85025048  0.37779709  0.20682495     0.30200
C25         C  0.84856545  0.37381377  0.27037957     0.30200
C26         C  0.86342352  0.34075461  0.22109516    -0.06000
C27         C  0.87340841  0.40661876  0.22403393    -0.06800
C28         C  0.81198977  0.38230471  0.22252565    -0.06600
C29         C  0.86269599  0.33934232  0.25335861    -0.06000
C30         C  0.87242687  0.40496123  0.25623924    -0.06700
C31         C  0.81148764  0.38103736  0.25478475    -0.06600
C32         C  0.87439785  0.30484629  0.26219565    -0.32000
N33         N  0.88222522  0.28461886  0.23638003     0.14500
C34         C  0.87478378  0.30602041  0.21122795    -0.32000
H35         H  0.87722393  0.29666668  0.18755554     0.16400
C36         C  0.89274527  0.43458815  0.26672346    -0.31000
N37         N  0.90697462  0.45330517  0.24191186     0.13200
C38         C  0.89502586  0.43637972  0.21573290    -0.31000
C39         C  0.77704392  0.39213885  0.26457207    -0.31300
N40         N  0.75593596  0.39816322  0.23944816     0.13700
H41         H  0.76853266  0.39779971  0.28820947     0.16300
C42         C  0.77686544  0.39191780  0.21362655    -0.31300
H43         H  0.76732743  0.39507080  0.19016997     0.16300
H44         H  0.90176983  0.44468626  0.19225243     0.16300
H45         H  0.87637684  0.29517889  0.28583152     0.16400
H46         H  0.89613785  0.44255943  0.29064340     0.16300
C47         C  0.36101105  0.12935932  0.03357164     0.30200
C48         C  0.36484933  0.12907190  0.46966969     0.30200
C49         C  0.37286331  0.16504945  0.01630685    -0.06000
C50         C  0.38651692  0.10007859  0.01939116    -0.06800
C51         C  0.32414598  0.12113542  0.01802579    -0.06600
C52         C  0.37502757  0.16669147  0.48456316    -0.06000
C53         C  0.38982603  0.10172275  0.48666162    -0.06700
C54         C  0.32674249  0.12193720  0.48493750    -0.06600
C55         C  0.38118200  0.20252515  0.47449590    -0.32000
N56         N  0.38507840  0.22144720  0.99740457     0.14500
C57         C  0.37911134  0.20167519  0.02382848    -0.32000
H58         H  0.37775048  0.21363455  0.04673543     0.16400
C59         C  0.41713897  0.07678533  0.47870159    -0.31000
N60         N  0.42818204  0.05788374  0.00606799     0.13200
C61         C  0.41173812  0.07530574  0.03050459    -0.31000
C62         C  0.29111408  0.11620546  0.47530726    -0.31300
N63         N  0.26727583  0.10851066  0.00312154     0.13700
H64         H  0.28259038  0.11504342  0.45149145     0.16300
C65         C  0.28848526  0.11580629  0.02797150    -0.31300
H66         H  0.27859543  0.11724010  0.05167933     0.16300
H67         H  0.41807847  0.07079967  0.05463771     0.16300
H68         H  0.38229301  0.21191001  0.45074194     0.16400
H69         H  0.42653699  0.07025057  0.45543354     0.16300
C70         C  0.37676097  0.15186824  0.28344289     0.30200
C71         C  0.37255986  0.15299252  0.22000360     0.30200
C72         C  0.38139179  0.19029542  0.26797097    -0.06000
C73         C  0.40478961  0.12802206  0.26580752    -0.06800
C74         C  0.33979026  0.13902097  0.26972530    -0.06600
C75         C  0.37909050  0.19078391  0.23579407    -0.06000
C76         C  0.40278876  0.12862288  0.23379056    -0.06700
C77         C  0.33742570  0.13947820  0.23744034    -0.06600
C78         C  0.38284288  0.22719563  0.22649792    -0.32000
N79         N  0.38855342  0.24880755  0.25177371     0.14500
C80         C  0.38682774  0.22654556  0.27725482    -0.32000
H81         H  0.39001587  0.23595903  0.30080918     0.16400
C82         C  0.42868720  0.10396346  0.22258820    -0.31000
N83         N  0.44616564  0.08831351  0.24701649     0.13200
C84         C  0.43168109  0.10297673  0.27353383    -0.31000
C85         C  0.30066548  0.13378644  0.23059038    -0.31300
N86         N  0.28094325  0.12906651  0.25747935     0.13700
H87         H  0.28892762  0.13510045  0.20775038     0.16300
C88         C  0.30475013  0.13326107  0.28129350    -0.31300
H89         H  0.29717506  0.13353894  0.30552214     0.16300
H90         H  0.43973872  0.09569268  0.29679143     0.16300
H91         H  0.38129056  0.23728938  0.20296415     0.16400
H92         H  0.43337596  0.09688097  0.19849190     0.16300
C93         C  0.64953571  0.84527121  0.04112042     0.30200
C94         C  0.65884650  0.83945895  0.47756880     0.30200
C95         C  0.64865831  0.80498086  0.02951281    -0.06000
C96         C  0.62033554  0.86436649  0.02104813    -0.06800
C97         C  0.68525087  0.86064289  0.02636019    -0.06600
C98         C  0.65106477  0.80346109  0.49583068    -0.06000
C99         C  0.62763315  0.86482293  0.48938545    -0.06700
C100        C  0.69249737  0.85546557  0.49377712    -0.06600
C101        C  0.63091604  0.77215568  0.48876421    -0.32000
N102        N  0.62210591  0.75122687  0.01713525     0.14500
C103        C  0.62995122  0.77440000  0.04090015    -0.32000
H104        H  0.62043416  0.77089205  0.06458371     0.16400
C105        C  0.60163605  0.88752291  0.47631979    -0.31000
N106        N  0.57896010  0.90014963  0.99812996     0.13200
C107        C  0.59331006  0.89046381  0.02581507    -0.31000
C108        C  0.72527073  0.87106339  0.48424569    -0.31300
N109        N  0.73756261  0.88777621  0.01059297     0.13700
H110        H  0.73553726  0.87236965  0.46062409     0.16300
C111        C  0.71512175  0.88129967  0.03560408    -0.31300
H112        H  0.71957363  0.89168135  0.05872470     0.16300
H113        H  0.58539057  0.90264846  0.04776629     0.16300
H114        H  0.62292346  0.76369825  0.46579137     0.16400
H115        H  0.59651665  0.89076928  0.45185129     0.16300
C116        C  0.66244398  0.86174964  0.29132423     0.30200
C117        C  0.66256206  0.86174935  0.22799363     0.30200
C118        C  0.65953659  0.82315236  0.27590719    -0.06000
C119        C  0.63022544  0.88237242  0.27623974    -0.06800
C120        C  0.69613263  0.87952436  0.27529757    -0.06600
C121        C  0.66049300  0.82337922  0.24336397    -0.06000
C122        C  0.63033933  0.88297325  0.24386714    -0.06700
C123        C  0.69591219  0.87973850  0.24330597    -0.06600
C124        C  0.64135418  0.79259575  0.23358176    -0.32000
N125        N  0.62833653  0.77337733  0.25840503     0.14500
C126        C  0.63781056  0.79289137  0.28400857    -0.32000
H127        H  0.62627469  0.78806619  0.30686124     0.16400
C128        C  0.60337906  0.90792389  0.23545049    -0.31000
N129        N  0.58623820  0.92107386  0.26149462     0.13200
C130        C  0.60244229  0.90538864  0.28644629    -0.31000
C131        C  0.72592263  0.89994692  0.23337519    -0.31300
N132        N  0.74503584  0.91171810  0.25839913     0.13700
H133        H  0.73303960  0.90565162  0.20946266     0.16300
C134        C  0.72675818  0.89939399  0.28424464    -0.31300
H135        H  0.73430805  0.90533595  0.30787326     0.16300
H136        H  0.59599444  0.91204097  0.31033742     0.16300
H137        H  0.63473036  0.78701857  0.20972190     0.16400
H138        H  0.59767734  0.91715928  0.21220280     0.16300
C139        C  0.15537559  0.65682769  0.47778566     0.30200
C140        C  0.15750611  0.66634545  0.04101431     0.30200
C141        C  0.15172943  0.69706260  0.48993336    -0.06000
C142        C  0.12301536  0.63775024  0.49496669    -0.06800
C143        C  0.18907735  0.64200748  0.49502744    -0.06600
C144        C  0.15312470  0.70254445  0.02222611    -0.06000
C145        C  0.12640559  0.64220030  0.02796284    -0.06700
C146        C  0.19194608  0.64886572  0.02666350    -0.06600
C147        C  0.13151980  0.73304272  0.02899147    -0.32000
N148        N  0.11912040  0.74852792  0.00256882     0.14500
C149        C  0.13115042  0.72647642  0.47877057    -0.32000
H150        H  0.12116698  0.72927562  0.45541012     0.16400
C151        C  0.09756827  0.62108576  0.03948042    -0.31000
N152        N  0.08085865  0.60400325  0.01539903     0.13200
C153        C  0.09397457  0.61531473  0.48714117    -0.31000
C154        C  0.22367241  0.63362797  0.03782563    -0.31300
N155        N  0.24422479  0.62031398  0.01365504     0.13700
H156        H  0.23039601  0.63160356  0.06206747     0.16300
C157        C  0.22245075  0.62573022  0.48753749    -0.31300
H158        H  0.23222395  0.61980912  0.46429963     0.16300
H159        H  0.08678892  0.60681306  0.46399554     0.16300
H160        H  0.12302294  0.74148911  0.05199828     0.16400
H161        H  0.09006486  0.61731577  0.06360407     0.16300
C162        C  0.14059509  0.66533690  0.29087526     0.30200
C163        C  0.13967384  0.65794506  0.22762859     0.30200
C164        C  0.17619628  0.65155624  0.27529844    -0.06000
C165        C  0.11154995  0.63822772  0.27815212    -0.06800
C166        C  0.13182151  0.70087835  0.27230856    -0.06600
C167        C  0.17562646  0.64802864  0.24342476    -0.06000
C168        C  0.11116489  0.63460794  0.24591243    -0.06700
C169        C  0.13146112  0.69708122  0.24015843    -0.06600
C170        C  0.20938397  0.63500943  0.23396451    -0.32000
N171        N  0.23067363  0.62992417  0.25931980     0.14500
C172        C  0.21039147  0.64007872  0.28474916    -0.32000
H173        H  0.21926544  0.63854000  0.30851444     0.16400
C174        C  0.08226655  0.61167140  0.23885307    -0.31000
N175        N  0.06526494  0.60071921  0.26560428     0.13200
C176        C  0.08274875  0.61712643  0.28971491    -0.31000
C177        C  0.11480367  0.72834310  0.22845319    -0.31300
N178        N  0.10598161  0.75161229  0.25217029     0.13700
H179        H  0.10834498  0.73298345  0.20442913     0.16300
C180        C  0.11498389  0.73425251  0.27903292    -0.31300
H181        H  0.10782366  0.74402425  0.30200127     0.16300
H182        H  0.07448371  0.61469858  0.31380553     0.16300
H183        H  0.21754612  0.62994668  0.21016739     0.16400
H184        H  0.07419171  0.60353851  0.21583701     0.16300
O185        O  0.01905434  0.96228437  0.44863745    -0.71600
O186        O  0.97975350  0.06012889  0.45629264    -0.71800
O187        O  0.04783280  0.03085654  0.45121523    -0.71600
O188        O  0.95075242  0.99174035  0.45339050    -0.71600
O189        O  0.94992152  0.98823999  0.00778797    -0.71600
O190        O  0.04719508  0.02700402  0.00704051    -0.71600
O191        O  0.97974879  0.05636961  0.01127501    -0.71600
O192        O  0.01753945  0.95884506  0.00382228    -0.71700
V193        V  0.99938009  0.01115280  0.45330594     1.35200
V194        V  0.99853923  0.00767367  0.00650006     1.35200
C195        C  0.02527389  0.94498525  0.97763878     0.77700
C196        C  0.97125673  0.07504158  0.98764748     0.77700
C197        C  0.06553348  0.03563134  0.47590310     0.77600
C198        C  0.93537555  0.98302895  0.47884309     0.77600
O199        O  0.99179482  0.07617805  0.28528766    -0.71600
O200        O  0.03432509  0.98061153  0.28761212    -0.71800
O201        O  0.06066995  0.04974877  0.28019964    -0.71600
O202        O  0.96545862  0.00709502  0.29235813    -0.71600
O203        O  0.95891283  0.00438517  0.24249711    -0.71600
O204        O  0.05535065  0.04314726  0.23049799    -0.71600
O205        O  0.02668848  0.97461109  0.23808887    -0.71600
O206        O  0.98712221  0.07241173  0.23529686    -0.71700
V207        V  0.01297958  0.02831722  0.28537620     1.35200
V208        V  0.00721867  0.02372612  0.23753072     1.35200
C209        C  0.98213412  0.09067730  0.26003697     0.77700
C210        C  0.03718440  0.96092665  0.26350880     0.77700
C211        C  0.07439657  0.05351291  0.25323067     0.77600
C212        C  0.94570752  0.99900221  0.26939101     0.77600
O213        O  0.54880534  0.47168574  0.03359615    -0.71600
O214        O  0.45138296  0.50956792  0.02792552    -0.71800
O215        O  0.48085295  0.44148291  0.03421802    -0.71600
O216        O  0.51923286  0.53922390  0.02755907    -0.71600
O217        O  0.52456408  0.53511960  0.47933597    -0.71600
O218        O  0.48014904  0.43996760  0.48606183    -0.71600
O219        O  0.45496557  0.50926665  0.47944457    -0.71600
O220        O  0.54986936  0.46579107  0.48581757    -0.71700
V221        V  0.50004852  0.49029251  0.02988477     1.35200
V222        V  0.50232035  0.48765463  0.48363282     1.35200
C223        C  0.56585771  0.46380552  0.51162008     0.77700
C224        C  0.43657578  0.51823379  0.50339143     0.77700
C225        C  0.47313362  0.42293184  0.01030143     0.77600
C226        C  0.53022177  0.55181025  0.00169307     0.77600
O227        O  0.44765133  0.53941154  0.25372993    -0.71600
O228        O  0.54290701  0.49592719  0.25005771    -0.71800
O229        O  0.51699078  0.56560248  0.25230830    -0.71600
O230        O  0.47347677  0.46965660  0.25165837    -0.71600
O231        O  0.47636612  0.46960706  0.20139167    -0.71600
O232        O  0.51228940  0.56883478  0.20231259    -0.71600
O233        O  0.54328798  0.50163713  0.19995258    -0.71600
O234        O  0.44515798  0.53696021  0.20353591    -0.71700
V235        V  0.49524182  0.51769874  0.25100429     1.35200
V236        V  0.49423613  0.51922653  0.20275002     1.35200
C237        C  0.42979042  0.54468879  0.22918305     0.77700
C238        C  0.55969174  0.49229264  0.22434189     0.77700
C239        C  0.52178634  0.58379734  0.22749531     0.77600
C240        C  0.46816380  0.45288988  0.22637583     0.77600
C241        C  0.39173641  0.55894687  0.23026681    -0.05000
C242        C  0.36918617  0.55508025  0.20430141    -0.04900
C243        C  0.33287540  0.56757322  0.20517202    -0.23100
C244        C  0.31862886  0.58468150  0.23188180     0.19100
C245        C  0.34114615  0.58920849  0.25800437     0.16300
C246        C  0.37750574  0.57600817  0.25715734    -0.18100
C247        C  0.32691334  0.60697719  0.28442822    -0.20000
C248        C  0.29079103  0.62035887  0.28488387    -0.12500
C249        C  0.26794028  0.61580675  0.25906119     0.04100
C250        C  0.28225319  0.59746496  0.23272794    -0.24700
H251        H  0.37949086  0.54190251  0.18337467     0.09200
H252        H  0.31598661  0.56398025  0.18490040     0.12800
H253        H  0.39476672  0.57930817  0.27724979     0.12800
H254        H  0.34383079  0.61087622  0.30463923     0.12500
H255        H  0.28109241  0.63467513  0.30540821     0.13100
H256        H  0.26525065  0.59280434  0.21275756     0.15000
C257        C  0.05200210  0.92279376  0.26557214    -0.05000
C258        C  0.06704559  0.91039476  0.29356838    -0.04900
C259        C  0.08032804  0.87433571  0.29642883    -0.23100
C260        C  0.07860535  0.84975795  0.27141521     0.19100
C261        C  0.06339958  0.86167251  0.24317222     0.16300
C262        C  0.05037076  0.89822100  0.24031935    -0.18100
C263        C  0.06140751  0.83674457  0.21837522    -0.20000
C264        C  0.07454468  0.80049973  0.22147448    -0.12500
C265        C  0.09031816  0.78838728  0.24939277     0.04100
C266        C  0.09207268  0.81353072  0.27426952    -0.24700
H267        H  0.06858680  0.92864443  0.31341566     0.09200
H268        H  0.09182603  0.86563624  0.31828546     0.12800
H269        H  0.03861861  0.90733523  0.21867191     0.12800
H270        H  0.04965691  0.84524903  0.19656605     0.12500
H271        H  0.07216780  0.78214241  0.20185386     0.13100
H272        H  0.10461947  0.80538738  0.29579432     0.15000
C273        C  0.14457806  0.66947491  0.32592024    -0.05000
C274        C  0.15823889  0.70283402  0.33829025    -0.04900
C275        C  0.16462633  0.70660575  0.36992166    -0.23100
C276        C  0.15902330  0.67661718  0.38997720     0.19100
C277        C  0.14825557  0.64205423  0.37781004     0.16300
C278        C  0.14144545  0.63856938  0.34586425    -0.18100
C279        C  0.14514563  0.61153402  0.39782185    -0.20000
C280        C  0.15014761  0.61594643  0.42974518    -0.12500
C281        C  0.15682570  0.65118392  0.44254942     0.04100
C282        C  0.16404054  0.68074176  0.42199490    -0.24700
H283        H  0.16490993  0.72609878  0.32347004     0.09200
H284        H  0.17421379  0.73299041  0.37865715     0.12800
H285        H  0.13440517  0.61170386  0.33653440     0.12800
H286        H  0.13825863  0.58439737  0.38888946     0.12500
H287        H  0.14732143  0.59193425  0.44462775     0.13100
H288        H  0.17332240  0.70716477  0.43071898     0.15000
C289        C  0.15920555  0.66995701  0.07622450    -0.05000
C290        C  0.16922936  0.70365666  0.09025045    -0.04900
C291        C  0.16801924  0.70770193  0.12237840    -0.23100
C292        C  0.15756897  0.67788086  0.14128171     0.19100
C293        C  0.15065465  0.64301877  0.12782083     0.16300
C294        C  0.15271818  0.63899548  0.09547164    -0.18100
C295        C  0.14182368  0.61285998  0.14700727    -0.20000
C296        C  0.13809535  0.61774395  0.17905696    -0.12500
C297        C  0.14208882  0.65303804  0.19254496     0.04100
C298        C  0.15432220  0.68235206  0.17344222    -0.24700
H299        H  0.17820564  0.72710614  0.07650294     0.09200
H300        H  0.17479125  0.73432470  0.13240067     0.12800
H301        H  0.14848940  0.61194778  0.08529816     0.12800
H302        H  0.13767248  0.58555273  0.13724777     0.12500
H303        H  0.13256100  0.59367186  0.19330512     0.13100
H304        H  0.16196715  0.70864148  0.18348115     0.15000
C305        C  0.27772924  0.60297375  0.51675998    -0.05000
C306        C  0.29973103  0.60442664  0.04393637    -0.04900
C307        C  0.33376611  0.58695327  0.04684973    -0.23100
C308        C  0.34916118  0.56726990  0.02197080     0.19100
C309        C  0.32986062  0.56491549  0.99385442     0.16300
C310        C  0.29520587  0.58199481  0.99123060    -0.18100
C311        C  0.34578081  0.54581644  0.96873593    -0.20000
C312        C  0.38062944  0.52970663  0.97135131    -0.12500
C313        C  0.39942554  0.53481316  0.50065486     0.04100
C314        C  0.38381201  0.55040823  0.02463520    -0.24700
H315        H  0.28956600  0.62011887  0.06354052     0.09200
H316        H  0.34830195  0.58929704  0.06851828     0.12800
H317        H  0.27952337  0.58033202  0.47028900     0.12800
H318        H  0.33147544  0.54368806  0.94695140     0.12500
H319        H  0.39242458  0.51543140  0.95150724     0.13100
H320        H  0.39854299  0.55245299  0.04624037     0.15000
C321        C  0.09580142  0.78095338  0.00071326    -0.05000
C322        C  0.07393073  0.79176284  0.02635609    -0.04900
C323        C  0.05485482  0.82528590  0.02631124    -0.23100
C324        C  0.05683515  0.84872984  0.00050776     0.19100
C325        C  0.07704416  0.83759852  0.97389380     0.16300
C326        C  0.09831034  0.80319802  0.47286943    -0.18100
C327        C  0.07951736  0.85900403  0.44476610    -0.20000
C328        C  0.06140655  0.89333528  0.44447759    -0.12500
C329        C  0.04162643  0.90739397  0.97553857     0.04100
C330        C  0.03947369  0.88344583  0.00120626    -0.24700
H331        H  0.07173462  0.77452959  0.04678565     0.09200
H332        H  0.03898668  0.83314353  0.04672102     0.12800
H333        H  0.11496238  0.79465615  0.45312294     0.12800
H334        H  0.09477899  0.85020256  0.42431187     0.12500
H335        H  0.06329377  0.91049098  0.42392070     0.13100
H336        H  0.02460299  0.89200655  0.02195473     0.15000
C337        C  0.60636348  0.73970803  0.25780556    -0.05000
C338        C  0.59946867  0.71956732  0.28528953    -0.04900
C339        C  0.58033321  0.68600118  0.28484006    -0.23100
C340        C  0.56796063  0.67129469  0.25685914     0.19100
C341        C  0.57410434  0.69110639  0.22906186     0.16300
C342        C  0.59289189  0.72522024  0.22970298    -0.18100
C343        C  0.56197012  0.67605213  0.20100198    -0.20000
C344        C  0.54456521  0.64141277  0.20049066    -0.12500
C345        C  0.53871228  0.62126851  0.22803915     0.04100
C346        C  0.55021423  0.63671668  0.25621716    -0.24700
H347        H  0.60960841  0.72905235  0.30730825     0.09200
H348        H  0.57590367  0.67112766  0.30638800     0.12800
H349        H  0.59726723  0.73987528  0.20813666     0.12800
H350        H  0.56640536  0.69080410  0.17939764     0.12500
H351        H  0.53601112  0.63022730  0.17845922     0.13100
H352        H  0.54596364  0.62155670  0.27765619     0.15000
C353        C  0.90812763  0.98361917  0.27354855    -0.05000
C354        C  0.89667712  0.96801846  0.30194076    -0.04900
C355        C  0.86174827  0.95184791  0.30514651    -0.23100
C356        C  0.83750302  0.95137653  0.28010654     0.19100
C357        C  0.84834335  0.96823355  0.25186929     0.16300
C358        C  0.88353006  0.98397700  0.24870777    -0.18100
C359        C  0.82399962  0.96869169  0.22706573    -0.16400
C360        C  0.78970376  0.95148542  0.22974053    -0.12500
C361        C  0.77902445  0.93280092  0.25714049     0.04100
C362        C  0.80300690  0.93369236  0.28256487    -0.24700
H363        H  0.91505113  0.96757794  0.32147119     0.09200
H364        H  0.85387378  0.93934333  0.32709333     0.12800
H365        H  0.89182189  0.99638542  0.22680235     0.12800
H366        H  0.83162668  0.98205998  0.20540854     0.12500
H367        H  0.77177218  0.95271272  0.21002435     0.13100
H368        H  0.79555578  0.91966022  0.30391486     0.15000
C369        C  0.66412045  0.83712860  0.44245649    -0.05000
C370        C  0.67256817  0.80348432  0.42744695    -0.04900
C371        C  0.67567140  0.80172976  0.39516953    -0.23100
C372        C  0.67080726  0.83366431  0.37720901     0.19100
C373        C  0.66523978  0.86805862  0.39201836     0.16300
C374        C  0.66314690  0.86971090  0.42446407    -0.18100
C375        C  0.66153640  0.90017814  0.37410019    -0.20000
C376        C  0.66138465  0.89789570  0.34178842    -0.12500
C377        C  0.66438640  0.86346213  0.32664165     0.04100
C378        C  0.67129609  0.83171907  0.34473264    -0.24700
H379        H  0.67740005  0.77845079  0.44047811     0.09200
H380        H  0.68132387  0.77527335  0.38424992     0.12800
H381        H  0.65989004  0.89635176  0.43570202     0.12800
H382        H  0.65811340  0.92697729  0.38505803     0.12500
H383        H  0.65850885  0.92317159  0.32852668     0.13100
H384        H  0.67738991  0.80544403  0.33385691     0.15000
C385        C  0.66536906  0.85882776  0.19271900    -0.05000
C386        C  0.69891642  0.84722546  0.17899437    -0.04900
C387        C  0.70257518  0.84273287  0.14701150    -0.23100
C388        C  0.67221136  0.84779198  0.12794880     0.19100
C389        C  0.63759417  0.85622170  0.14147366     0.16300
C390        C  0.63430363  0.86150940  0.17369773    -0.18100
C391        C  0.60662666  0.85779336  0.12261111    -0.20000
C392        C  0.61030450  0.85294009  0.09059428    -0.12500
C393        C  0.64525293  0.84875720  0.07635025     0.04100
C394        C  0.67574175  0.84368359  0.09567271    -0.24700
H395        H  0.72259446  0.84140646  0.19312027     0.09200
H396        H  0.72908199  0.83483718  0.13724988     0.12800
H397        H  0.60732402  0.86596798  0.18383075     0.12800
H398        H  0.57946374  0.86223044  0.13264318     0.12500
H399        H  0.58546534  0.85173054  0.07721834     0.13100
H400        H  0.70225253  0.83634422  0.08567007     0.15000
C401        C  0.60200123  0.71666543  0.01883457    -0.05000
C402        C  0.57759643  0.70907872  0.04366211    -0.04900
C403        C  0.55843232  0.67544861  0.04517396    -0.23100
C404        C  0.56312915  0.64876092  0.02183088     0.19100
C405        C  0.58295410  0.66089177  0.49563548     0.16300
C406        C  0.60181804  0.69475028  0.49370413    -0.18100
C407        C  0.58752133  0.63412354  0.47239707    -0.20000
C408        C  0.56926646  0.60016424  0.47463710    -0.12500
C409        C  0.54878925  0.58828074  0.99959461     0.04100
C410        C  0.54423865  0.61475818  0.02328077    -0.24700
H411        H  0.57290440  0.72924680  0.06180127     0.09200
H412        H  0.53984156  0.67036505  0.06457558     0.12800
H413        H  0.62052358  0.69966707  0.47437149     0.12800
H414        H  0.60538384  0.63936494  0.45255028     0.12500
H415        H  0.57362714  0.57982285  0.45651571     0.13100
H416        H  0.52597944  0.60893418  0.04277336     0.15000
C417        C  0.77751384  0.90387250  0.50922160    -0.05000
C418        C  0.79211586  0.91096565  0.03860552    -0.04900
C419        C  0.82697498  0.92732525  0.03869581    -0.23100
C420        C  0.84346406  0.93942834  0.01096025     0.19100
C421        C  0.82586155  0.93804902  0.48158472     0.16300
C422        C  0.79067118  0.92199606  0.48236019    -0.18100
C423        C  0.83953097  0.95495247  0.45449997    -0.20000
C424        C  0.87515954  0.96961118  0.45359276    -0.12500
C425        C  0.89751983  0.96803443  0.47986479     0.04100
C426        C  0.87893961  0.95485733  0.01080104    -0.24700
H427        H  0.78089904  0.90085894  0.06034461     0.09200
H428        H  0.84131028  0.92991024  0.06042783     0.12800
H429        H  0.77369091  0.92346259  0.46199142     0.12800
H430        H  0.82286948  0.95640348  0.43391524     0.12500
H431        H  0.88521401  0.98221848  0.43231843     0.13100
H432        H  0.89354258  0.95760692  0.03240051     0.15000
C433        C  0.47396192  0.05983174  0.24517508    -0.05000
C434        C  0.49846777  0.05824876  0.21969624    -0.04900
C435        C  0.52537528  0.03063184  0.21776031    -0.23100
C436        C  0.52815953  0.00388256  0.24118450     0.19100
C437        C  0.50361208  0.00508366  0.26685820     0.16300
C438        C  0.47678876  0.03303230  0.26872961    -0.18100
C439        C  0.50625716  0.97824552  0.29019718    -0.20000
C440        C  0.53307547  0.95056627  0.28820486    -0.12500
C441        C  0.55790674  0.94914891  0.26288036     0.04100
C442        C  0.55512863  0.97604720  0.23938417    -0.24700
H443        H  0.49711618  0.07872215  0.20142085     0.09200
H444        H  0.54400980  0.03020224  0.19792732     0.12800
H445        H  0.45773646  0.03353598  0.28826650     0.12800
H446        H  0.48756178  0.97862764  0.30999442     0.12500
H447        H  0.53417762  0.93002981  0.30643810     0.13100
H448        H  0.57432704  0.97583099  0.21996625     0.15000
C449        C  0.45319290  0.41458156  0.22595888    -0.05000
C450        C  0.45668829  0.39290444  0.19903934    -0.04900
C451        C  0.44392138  0.35636262  0.19857673    -0.23100
C452        C  0.42698843  0.34080431  0.22493956     0.19100
C453        C  0.42252264  0.36247697  0.25196841     0.16300
C454        C  0.43584207  0.39915148  0.25239670    -0.18100
C455        C  0.40515186  0.34691310  0.27815497    -0.20000
C456        C  0.39312157  0.31003158  0.27781585    -0.12500
C457        C  0.39830670  0.28776620  0.25133111     0.04100
C458        C  0.41500003  0.30376037  0.22480540    -0.24700
H459        H  0.46993195  0.40402359  0.17839990     0.09200
H460        H  0.44750652  0.34018202  0.17760742     0.12800
H461        H  0.43271252  0.41563238  0.27326125     0.12800
H462        H  0.40113302  0.36317530  0.29902612     0.12500
H463        H  0.37986690  0.29894544  0.29842021     0.13100
H464        H  0.41980677  0.28716489  0.20426735     0.15000
C465        C  0.24189957  0.12053284  0.26072291    -0.05000
C466        C  0.22405747  0.12239851  0.28998215    -0.04900
C467        C  0.18772776  0.11050766  0.29410006    -0.23100
C468        C  0.16785033  0.09688178  0.26905675     0.19100
C469        C  0.18444163  0.09636402  0.23925637     0.16300
C470        C  0.22126180  0.10806765  0.23525808    -0.18100
C471        C  0.16412261  0.08331820  0.21410111    -0.20000
C472        C  0.12819960  0.07002218  0.21859491    -0.12500
C473        C  0.11185764  0.06931330  0.24835678     0.04100
C474        C  0.13183663  0.08331355  0.27345374    -0.24700
H475        H  0.23798080  0.13268706  0.31013777     0.09200
H476        H  0.17529514  0.11161320  0.31706728     0.12800
H477        H  0.23396025  0.10622782  0.21248269     0.12800
H478        H  0.17617199  0.08294662  0.19098184     0.12500
H479        H  0.11341129  0.05970548  0.19878018     0.13100
H480        H  0.11953929  0.08331336  0.29649989     0.15000
C481        C  0.45810597  0.03190204  0.00812139    -0.05000
C482        C  0.48372650  0.03517644  0.03205891    -0.04900
C483        C  0.51296578  0.01040040  0.03430744    -0.23100
C484        C  0.51709578  0.98171418  0.01272797     0.19100
C485        C  0.49760142  0.98511522  0.48807318     0.16300
C486        C  0.46822878  0.01016765  0.48529175    -0.18100
C487        C  0.50244918  0.95622612  0.46671785    -0.20000
C488        C  0.53113160  0.93082191  0.47019919    -0.12500
C489        C  0.55024467  0.92718270  0.99404603     0.04100
C490        C  0.54625552  0.95661638  0.01515456    -0.24700
H491        H  0.48148845  0.05735341  0.04883336     0.09200
H492        H  0.53235406  0.01367642  0.05296662     0.12800
H493        H  0.44891939  0.00708042  0.46656562     0.12800
H494        H  0.48378302  0.95298732  0.44754861     0.12500
H495        H  0.53367307  0.90828123  0.45379646     0.13100
H496        H  0.56592896  0.96012200  0.03354134     0.15000
C497        C  0.38120912  0.14967622  0.31859608    -0.05000
C498        C  0.40787497  0.17147177  0.33342556    -0.04900
C499        C  0.41147718  0.17064957  0.36562211    -0.23100
C500        C  0.38940653  0.14693745  0.38367009     0.19100
C501        C  0.36550853  0.12196905  0.36888897     0.16300
C502        C  0.36237678  0.12275188  0.33648289    -0.18100
C503        C  0.34532889  0.09651199  0.38682574    -0.20000
C504        C  0.34658419  0.09789571  0.41916456    -0.12500
C505        C  0.36695093  0.12555006  0.43433406     0.04100
C506        C  0.39087477  0.14771073  0.41618452    -0.24700
H507        H  0.42615490  0.18923819  0.32015690     0.09200
H508        H  0.43124036  0.18887227  0.37640992     0.12800
H509        H  0.34544518  0.10216862  0.32536738     0.12800
H510        H  0.32804713  0.07597972  0.37589491     0.12500
H511        H  0.33100337  0.07758130  0.43231741     0.13100
H512        H  0.41079332  0.16545734  0.42711555     0.15000
C513        C  0.37382928  0.15294234  0.18460938    -0.05000
C514        C  0.40038358  0.17472738  0.16886732    -0.04900
C515        C  0.40299699  0.17490962  0.13660196    -0.23100
C516        C  0.38068715  0.15148663  0.11920124     0.19100
C517        C  0.35666463  0.12657822  0.13462391     0.16300
C518        C  0.35341968  0.12733188  0.16717032    -0.18100
C519        C  0.33721763  0.10058751  0.11721328    -0.20000
C520        C  0.33992180  0.10090255  0.08487583    -0.12500
C521        C  0.36032155  0.12850005  0.06903439     0.04100
C522        C  0.38278644  0.15193931  0.08666996    -0.24700
H523        H  0.41964462  0.19158615  0.18151490     0.09200
H524        H  0.42282834  0.19302607  0.12530759     0.12800
H525        H  0.33592068  0.10727914  0.17875664     0.12800
H526        H  0.32006809  0.07995147  0.12855196     0.12500
H527        H  0.32561886  0.07955234  0.07221933     0.13100
H528        H  0.40274669  0.16971641  0.07540104     0.15000
C529        C  0.45694401  0.38535780  0.01305449    -0.05000
C530        C  0.46091672  0.36500314  0.04056645    -0.04900
C531        C  0.44691237  0.32904809  0.04312455    -0.23100
C532        C  0.42817612  0.31290982  0.01837301     0.19100
C533        C  0.42314994  0.33339283  0.99085615     0.16300
C534        C  0.43607457  0.37326270  0.49132799    -0.18100
C535        C  0.39999408  0.32218814  0.47038743    -0.20000
C536        C  0.38693550  0.28580064  0.47265362    -0.12500
C537        C  0.39624751  0.25992224  0.99572814     0.04100
C538        C  0.41488139  0.27644960  0.02057401    -0.24700
H539        H  0.47552768  0.37665670  0.05996172     0.09200
H540        H  0.45092074  0.31377387  0.06444937     0.12800
H541        H  0.43062157  0.38967367  0.47083850     0.12800
H542        H  0.39357834  0.33840537  0.45001675     0.12500
H543        H  0.37054633  0.27490649  0.45402572     0.13100
H544        H  0.42010968  0.26063012  0.04138435     0.15000
C545        C  0.22963990  0.10286469  0.50064526    -0.05000
C546        C  0.21554067  0.07888653  0.03164029    -0.04900
C547        C  0.17963699  0.06523264  0.03293483    -0.23100
C548        C  0.15691127  0.06832232  0.00718555     0.19100
C549        C  0.17026533  0.08610679  0.98006609     0.16300
C550        C  0.20624963  0.10032203  0.97908854    -0.18100
C551        C  0.14762456  0.08871045  0.95415672    -0.20000
C552        C  0.12256552  0.05477464  0.44678690    -0.12500
C553        C  0.10320339  0.05118270  0.47506336     0.04100
C554        C  0.12132881  0.05322870  0.00790842    -0.24700
H555        H  0.23272959  0.07466435  0.05157248     0.09200
H556        H  0.16993035  0.05153649  0.05386441     0.12800
H557        H  0.22669808  0.09335673  0.45105515     0.12800
H558        H  0.15732571  0.10231340  0.93318883     0.12500
H559        H  0.11010272  0.04637314  0.42525799     0.13100
H560        H  0.11131018  0.03938451  0.02868091     0.15000
C561        C  0.93165728  0.48469056  0.24306511    -0.05000
C562        C  0.93517827  0.50884840  0.21758704    -0.04900
C563        C  0.96094352  0.53757169  0.21759844    -0.23100
C564        C  0.98372360  0.54284660  0.24313549     0.19100
C565        C  0.97978706  0.51961754  0.26930027     0.16300
C566        C  0.95378642  0.49078016  0.26915443    -0.18100
C567        C  0.00261128  0.52503636  0.29484714    -0.20000
C568        C  0.02993159  0.55238011  0.29401144    -0.12500
C569        C  0.03487439  0.57494258  0.26768168     0.04100
C570        C  0.01092414  0.57045215  0.24258938    -0.24700
H571        H  0.91810403  0.50553334  0.19745714     0.09200
H572        H  0.96341068  0.55532128  0.19743022     0.12800
H573        H  0.95185359  0.47236674  0.28889583     0.12800
H574        H  0.99991997  0.50757419  0.31517085     0.12500
H575        H  0.04801242  0.55496143  0.31359459     0.13100
H576        H  0.01368018  0.58809454  0.22240939     0.15000
C577        C  0.89741903  0.24757564  0.23592536    -0.05000
C578        C  0.89401589  0.22462992  0.20972618    -0.04900
C579        C  0.91002383  0.18936480  0.20900407    -0.23100
C580        C  0.92958245  0.17619618  0.23451885     0.19100
C581        C  0.93265459  0.19871956  0.26111472     0.16300
C582        C  0.91685247  0.23411833  0.26156479    -0.18100
C583        C  0.95169359  0.18560416  0.28687034    -0.20000
C584        C  0.96766473  0.15049690  0.28632050    -0.12500
C585        C  0.96527827  0.12793817  0.25989405     0.04100
C586        C  0.94613848  0.14098247  0.23396918    -0.24700
H587        H  0.87882310  0.23373961  0.18976821     0.09200
H588        H  0.90709931  0.17240162  0.18847518     0.12800
H589        H  0.92046256  0.25140151  0.28177630     0.12800
H590        H  0.95419961  0.20248791  0.30749378     0.12500
H591        H  0.98217268  0.14108589  0.30660464     0.13100
H592        H  0.94380317  0.12365593  0.21357860     0.15000
C593        C  0.71871040  0.41180465  0.24053920    -0.05000
C594        C  0.69547522  0.40304145  0.26584735    -0.04900
C595        C  0.65987109  0.41737520  0.26789049    -0.23100
C596        C  0.64672305  0.44062007  0.24455621     0.19100
C597        C  0.66965227  0.44932873  0.21879574     0.16300
C598        C  0.70550502  0.43498198  0.21699706    -0.18100
C599        C  0.65629827  0.47223713  0.19527112    -0.20000
C600        C  0.62042151  0.48603233  0.19708191    -0.12500
C601        C  0.59754006  0.47767101  0.22267606     0.04100
C602        C  0.61096527  0.45514009  0.24648420    -0.24700
H603        H  0.70483338  0.38488087  0.28407012     0.09200
H604        H  0.64260705  0.41021561  0.28769129     0.12800
H605        H  0.72327838  0.44239568  0.19759633     0.12800
H606        H  0.67349070  0.47928325  0.17539620     0.12500
H607        H  0.61064822  0.50357387  0.17856966     0.13100
H608        H  0.59338848  0.44840700  0.26621961     0.15000
C609        C  0.96307525  0.47144237  0.99559193    -0.05000
C610        C  0.99248630  0.46512720  0.47276931    -0.04900
C611        C  0.02008367  0.49190900  0.47209165    -0.23100
C612        C  0.02067086  0.51973211  0.49463138     0.19100
C613        C  0.99393353  0.51986408  0.51877351     0.16300
C614        C  0.96662158  0.49658288  0.02030937    -0.18100
C615        C  0.99893542  0.54890831  0.04388882    -0.20000
C616        C  0.02701928  0.57557603  0.04256221    -0.12500
C617        C  0.05232020  0.57624454  0.01754724     0.04100
C618        C  0.04742078  0.54761862  0.49311755    -0.24700
H619        H  0.99229010  0.44419161  0.45481915     0.09200
H620        H  0.04058035  0.49124329  0.45359628     0.12800
H621        H  0.94638227  0.49657132  0.03900273     0.12800
H622        H  0.97952604  0.54925277  0.06319066     0.12500
H623        H  0.02846619  0.59608545  0.06076807     0.13100
H624        H  0.06811644  0.54680281  0.47480930     0.15000
C625        C  0.87046651  0.37676036  0.42136084    -0.05000
C626        C  0.90457136  0.38294878  0.40612736    -0.04900
C627        C  0.90738070  0.38344840  0.37384161    -0.23100
C628        C  0.87665218  0.37530870  0.35594592     0.19100
C629        C  0.84351542  0.36445628  0.37083389     0.16300
C630        C  0.84079809  0.36471296  0.40330351    -0.18100
C631        C  0.81393440  0.35266099  0.35296351    -0.20000
C632        C  0.81633738  0.35417176  0.32070056    -0.12500
C633        C  0.84748164  0.36949658  0.30557690     0.04100
C634        C  0.87867055  0.37712056  0.32346517    -0.24700
H635        H  0.92957957  0.38644808  0.41898900     0.09200
H636        H  0.93369907  0.38972586  0.36290990     0.12800
H637        H  0.81584859  0.35463766  0.41437434     0.12800
H638        H  0.78892985  0.34231008  0.36390148     0.12500
H639        H  0.79355136  0.34333258  0.30767664     0.13100
H640        H  0.90449970  0.38443286  0.31225418     0.15000
C641        C  0.85161226  0.38299148  0.17162179    -0.05000
C642        C  0.83080649  0.41124015  0.15760434    -0.04900
C643        C  0.82931971  0.41450384  0.12536717    -0.23100
C644        C  0.85026033  0.39086771  0.10640175     0.19100
C645        C  0.87484311  0.36575436  0.12021476     0.16300
C646        C  0.87601888  0.36266364  0.15259611    -0.18100
C647        C  0.89841556  0.34464942  0.10140695    -0.20000
C648        C  0.89616319  0.34686221  0.06923868    -0.12500
C649        C  0.86898096  0.36862193  0.05499519     0.04100
C650        C  0.84783354  0.39254992  0.07394402    -0.24700
H651        H  0.81535168  0.43081822  0.17155897     0.09200
H652        H  0.81174145  0.43542441  0.11531756     0.12800
H653        H  0.89673830  0.34523968  0.16269574     0.12800
H654        H  0.91880188  0.32659303  0.11155337     0.12500
H655        H  0.91640883  0.33192020  0.05562079     0.13100
H656        H  0.83001725  0.41295371  0.06358655     0.15000
C657        C  0.95758764  0.11352054  0.99107949    -0.05000
C658        C  0.96164430  0.13215298  0.01943589    -0.04900
C659        C  0.95006843  0.16881860  0.02289759    -0.23100
C660        C  0.93379744  0.18751596  0.99816455     0.19100
C661        C  0.92913384  0.16902321  0.96963723     0.16300
C662        C  0.94435435  0.13169269  0.46178536    -0.18100
C663        C  0.91414209  0.18686349  0.44156650    -0.20000
C664        C  0.90037775  0.22266379  0.44605677    -0.12500
C665        C  0.90560215  0.24330296  0.97683941     0.04100
C666        C  0.92226302  0.22443422  0.00151623    -0.24700
H667        H  0.97430470  0.11850926  0.03892920     0.09200
H668        H  0.95386562  0.18255024  0.04494255     0.12800
H669        H  0.94318604  0.11877830  0.43915487     0.12800
H670        H  0.91229577  0.17427583  0.41885762     0.12500
H671        H  0.88792882  0.23646694  0.42661054     0.13100
H672        H  0.92687717  0.23856265  0.02323192     0.15000
C673        C  0.73422149  0.40340943  0.48988330    -0.05000
C674        C  0.71307616  0.39658179  0.46341800    -0.04900
C675        C  0.67571569  0.40579136  0.46284095    -0.23100
C676        C  0.65855418  0.42209296  0.48872534     0.19100
C677        C  0.67998305  0.42842788  0.01336677     0.16300
C678        C  0.71765199  0.41959188  0.01389345    -0.18100
C679        C  0.66280408  0.44555038  0.03888675    -0.20000
C680        C  0.62551610  0.45501494  0.03794884    -0.12500
C681        C  0.60426283  0.44988632  0.51354090     0.04100
C682        C  0.62138432  0.43290115  0.48775999    -0.24700
H683        H  0.72541369  0.38394610  0.44305888     0.09200
H684        H  0.66032140  0.40047717  0.44199054     0.12800
H685        H  0.73361813  0.42652718  0.03408096     0.12800
H686        H  0.67829053  0.45195960  0.05947321     0.12500
H687        H  0.61314875  0.46882343  0.05778482     0.13100
H688        H  0.60596156  0.42857489  0.46675364     0.15000
C689        C  0.86636909  0.36768872  0.51994335     0.30200
C690        C  0.86933187  0.37780300  0.95639899     0.30200
C691        C  0.82963094  0.37956529  0.50510397    -0.06000
C692        C  0.89370416  0.39634166  0.50680440    -0.06800
C693        C  0.87576955  0.33245451  0.50109730    -0.06600
C694        C  0.83153184  0.38450197  0.97220379    -0.06000
C695        C  0.89382719  0.40486523  0.97442230    -0.06700
C696        C  0.88041784  0.34003561  0.96936392    -0.06600
C697        C  0.79658787  0.39391263  0.96303820    -0.32000
N698        N  0.77322522  0.39511901  0.48971239     0.14500
C699        C  0.79365302  0.38575747  0.51470724    -0.32000
H700        H  0.78274082  0.38238533  0.53797739     0.16400
C701        C  0.91746037  0.43362006  0.96765964    -0.31000
N702        N  0.93279213  0.44577827  0.99429209     0.13200
C703        C  0.91940302  0.42052546  0.51867896    -0.31000
C704        C  0.89033703  0.30640669  0.95684045    -0.31300
N705        N  0.89050833  0.27813805  0.47921200     0.13700
H706        H  0.89432769  0.30069253  0.93242615     0.16300
C707        C  0.88328918  0.29552951  0.50667903    -0.31300
H708        H  0.88303438  0.28222733  0.52911162     0.16300
H709        H  0.92658309  0.42361915  0.54278985     0.16300
H710        H  0.78831900  0.40051392  0.93971152     0.16400
H711        H  0.92336381  0.44516077  0.94500983     0.16300
C712        C  0.85129237  0.37339045  0.70696932     0.30200
C713        C  0.85002191  0.36798948  0.77043145     0.30200
C714        C  0.86498277  0.33623794  0.72057135    -0.06000
C715        C  0.87407152  0.40230562  0.72447749    -0.06800
C716        C  0.81303396  0.37682615  0.72285313    -0.06600
C717        C  0.86466293  0.33402781  0.75281774    -0.06000
C718        C  0.87319574  0.39988688  0.75664102    -0.06700
C719        C  0.81263085  0.37492332  0.75507218    -0.06600
C720        C  0.87728295  0.29945561  0.76081152    -0.32000
N721        N  0.88491292  0.28010082  0.73446089     0.14500
C722        C  0.87650254  0.30192408  0.70987489    -0.32000
H723        H  0.87863391  0.29308625  0.68603460     0.16400
C724        C  0.89288286  0.42969876  0.76760468    -0.31000
N725        N  0.90688508  0.44908577  0.74317699     0.13200
C726        C  0.89517356  0.43276186  0.71667090    -0.31000
C727        C  0.77760279  0.38415976  0.76493766    -0.31300
N728        N  0.75613449  0.38976267  0.73984486     0.13700
H729        H  0.76898614  0.38873628  0.78869599     0.16300
C730        C  0.77752699  0.38483445  0.71402742    -0.31300
H731        H  0.76813605  0.38756604  0.69050785     0.16300
H732        H  0.90183952  0.44200617  0.69340904     0.16300
H733        H  0.88032915  0.28912563  0.78416727     0.16400
H734        H  0.89614756  0.43752648  0.79157699     0.16300
C735        C  0.36204075  0.13149918  0.53329276     0.30200
C736        C  0.36276350  0.12484335  0.96997186     0.30200
C737        C  0.37372854  0.16787505  0.51698529    -0.06000
C738        C  0.38828828  0.10314451  0.51877924    -0.06800
C739        C  0.32545864  0.12318543  0.51711235    -0.06600
C740        C  0.37373843  0.16279260  0.98394136    -0.06000
C741        C  0.38752195  0.09770495  0.98730750    -0.06700
C742        C  0.32472405  0.11851948  0.98580691    -0.06600
C743        C  0.38076112  0.19814137  0.97298544    -0.32000
N744        N  0.38488778  0.22502184  0.49948059     0.14500
C745        C  0.37943988  0.20429209  0.52545328    -0.32000
H746        H  0.37822582  0.21538861  0.54869868     0.16400
C747        C  0.41340893  0.07127358  0.97952102    -0.31000
N748        N  0.43218590  0.06344027  0.50518310     0.13200
C749        C  0.41455792  0.07939411  0.52972830    -0.31000
C750        C  0.28895006  0.11097580  0.97716948    -0.31300
N751        N  0.26836672  0.11297470  0.50059217     0.13700
H752        H  0.27947189  0.10679885  0.95382453     0.16300
C753        C  0.28931387  0.11822477  0.52612046    -0.31300
H754        H  0.27931595  0.11856741  0.54976660     0.16300
H755        H  0.42090543  0.07473988  0.55384153     0.16300
H756        H  0.38212080  0.20652418  0.94897043     0.16400
H757        H  0.42194537  0.06355354  0.95628313     0.16300
C758        C  0.38302199  0.14091484  0.78358358     0.30200
C759        C  0.38018769  0.14277011  0.72004577     0.30200
C760        C  0.38827015  0.17954587  0.76840750    -0.06000
C761        C  0.41124607  0.11681424  0.76611948    -0.06800
C762        C  0.34615696  0.12854936  0.76919619    -0.06600
C763        C  0.38659096  0.18020944  0.73621849    -0.06000
C764        C  0.40992665  0.11797547  0.73402263    -0.06700
C765        C  0.34462353  0.12936415  0.73683691    -0.06600
C766        C  0.38940811  0.21664570  0.72702659    -0.32000
N767        N  0.39405027  0.23835907  0.75233904     0.14500
C768        C  0.39260737  0.21603282  0.77783472    -0.32000
H769        H  0.39484813  0.22561587  0.80145002     0.16400
C770        C  0.43571791  0.09321365  0.72283163    -0.31000
N771        N  0.45248993  0.07677177  0.74724356     0.13200
C772        C  0.43760524  0.09101137  0.77381778    -0.31000
C773        C  0.30817890  0.12330946  0.72914893    -0.31300
N774        N  0.28787851  0.11808709  0.75554518     0.13700
H775        H  0.29671389  0.12484071  0.70621090     0.16300
C776        C  0.31074658  0.12225603  0.77996682    -0.31300
H777        H  0.30195594  0.12196653  0.80396206     0.16300
H778        H  0.44510140  0.08297464  0.79704735     0.16300
H779        H  0.38752261  0.22678465  0.70352580     0.16400
H780        H  0.44088596  0.08665091  0.69869494     0.16300
C781        C  0.65297231  0.84710900  0.54061004     0.30200
C782        C  0.65730876  0.83623649  0.97827551     0.30200
C783        C  0.64839092  0.80747212  0.52811505    -0.06000
C784        C  0.62505600  0.86939626  0.52139953    -0.06800
C785        C  0.68962120  0.85974174  0.52567319    -0.06600
C786        C  0.65219922  0.80029765  0.99730577    -0.06000
C787        C  0.62379717  0.85933882  0.98909321    -0.06700
C788        C  0.68916164  0.85557193  0.99463520    -0.06600
C789        C  0.63396621  0.76771334  0.99059320    -0.32000
N790        N  0.61849733  0.75581115  0.51524078     0.14500
C791        C  0.62809414  0.77784809  0.53926925    -0.32000
H792        H  0.61913743  0.77406825  0.56307012     0.16400
C793        C  0.59730983  0.88121297  0.97547002    -0.31000
N794        N  0.58420880  0.90671163  0.49925743     0.13200
C795        C  0.59865850  0.89618562  0.52678618    -0.31000
C796        C  0.72159437  0.87212998  0.98544340    -0.31300
N797        N  0.74235773  0.88527416  0.50939677     0.13700
H798        H  0.73258817  0.87241947  0.96204036     0.16300
C799        C  0.72050898  0.87893394  0.53472022    -0.31300
H800        H  0.72593000  0.88906137  0.55778618     0.16300
H801        H  0.59080240  0.90764442  0.54904343     0.16300
H802        H  0.62634665  0.75857778  0.96771171     0.16400
H803        H  0.59293568  0.88460542  0.95089723     0.16300
C804        C  0.66944191  0.85041081  0.79117098     0.30200
C805        C  0.67014859  0.85021704  0.72768887     0.30200
C806        C  0.66598630  0.81169357  0.77579663    -0.06000
C807        C  0.63790046  0.87172724  0.77560359    -0.06800
C808        C  0.70390798  0.86713131  0.77534160    -0.06600
C809        C  0.66689145  0.81190412  0.74320648    -0.06000
C810        C  0.63856738  0.87244266  0.74330171    -0.06700
C811        C  0.70390864  0.86730599  0.74325482    -0.06600
C812        C  0.64881185  0.78040141  0.73338641    -0.32000
N813        N  0.63700736  0.76061840  0.75833367     0.14500
C814        C  0.64589441  0.78028789  0.78403523    -0.32000
H815        H  0.63526241  0.77404128  0.80698143     0.16400
C816        C  0.61183725  0.89752164  0.73450917    -0.31000
N817        N  0.59395183  0.91028501  0.76027337     0.13200
C818        C  0.60964021  0.89450405  0.78541730    -0.31000
C819        C  0.73527506  0.88545995  0.73353789    -0.31300
N820        N  0.75533168  0.89516740  0.75860849     0.13700
H821        H  0.74272783  0.89177987  0.70976717     0.16300
C822        C  0.73611424  0.88445310  0.78444919    -0.31300
H823        H  0.74500142  0.88847779  0.80803367     0.16300
H824        H  0.60216144  0.90062385  0.80920942     0.16300
H825        H  0.64257091  0.77393682  0.70957138     0.16400
H826        H  0.60647706  0.90690776  0.71123460     0.16300
C827        C  0.15788920  0.65809205  0.97802285     0.30200
C828        C  0.15376662  0.66412599  0.54099013     0.30200
C829        C  0.15295845  0.69845668  0.98971730    -0.06000
C830        C  0.12666370  0.63815599  0.99591397    -0.06800
C831        C  0.19246540  0.64463513  0.99482953    -0.06600
C832        C  0.15128172  0.70074186  0.52247855    -0.06000
C833        C  0.12212769  0.64138161  0.52709441    -0.06700
C834        C  0.18791957  0.64568368  0.52693992    -0.06600
C835        C  0.13109573  0.73224840  0.52909161    -0.32000
N836        N  0.12010828  0.74851625  0.50249706     0.14500
C837        C  0.13068253  0.72683320  0.97874300    -0.32000
H838        H  0.12022645  0.72914305  0.95549197     0.16400
C839        C  0.09252789  0.62086563  0.53793865    -0.31000
N840        N  0.07606333  0.60437717  0.51346120     0.13200
C841        C  0.09797950  0.61504805  0.98873202    -0.31000
C842        C  0.22001142  0.63140800  0.53827400    -0.31300
N843        N  0.24138431  0.61930944  0.51415485     0.13700
H844        H  0.22681382  0.62989216  0.56253094     0.16300
C845        C  0.22510673  0.62697447  0.98717610    -0.31300
H846        H  0.23391073  0.61957394  0.96397282     0.16300
H847        H  0.09030233  0.60658004  0.96569928     0.16300
H848        H  0.12245600  0.74082670  0.55202679     0.16400
H849        H  0.08452332  0.61673286  0.56191366     0.16300
C850        C  0.14113026  0.65998454  0.79132718     0.30200
C851        C  0.13955519  0.65158728  0.72814429     0.30200
C852        C  0.17764955  0.64984263  0.77530916    -0.06000
C853        C  0.11477795  0.62970931  0.77935203    -0.06800
C854        C  0.12816588  0.69401651  0.77266745    -0.06600
C855        C  0.17681616  0.64552832  0.74344365    -0.06000
C856        C  0.11388392  0.62572411  0.74710014    -0.06700
C857        C  0.12756419  0.68982188  0.74064558    -0.06600
C858        C  0.21028736  0.63114465  0.73430300    -0.32000
N859        N  0.23167036  0.62681760  0.75972156     0.14500
C860        C  0.21174628  0.63823672  0.78491608    -0.32000
H861        H  0.22067015  0.63699559  0.80868901     0.16400
C862        C  0.08447966  0.60309211  0.74063852    -0.31000
N863        N  0.06831385  0.59207201  0.76765787     0.13200
C864        C  0.08624285  0.60853699  0.79144563    -0.31000
C865        C  0.11146624  0.72128893  0.72871718    -0.31300
N866        N  0.10254012  0.74475669  0.75237750     0.13700
H867        H  0.10615297  0.72620800  0.70451752     0.16300
C868        C  0.11178538  0.72761580  0.77930628    -0.31300
H869        H  0.10573499  0.73795314  0.80229790     0.16300
H870        H  0.07782513  0.60675387  0.81555170     0.16300
H871        H  0.21743834  0.62224894  0.71106046     0.16400
H872        H  0.07469958  0.59593829  0.71788291     0.16300
O873        O  0.01896319  0.96421837  0.95372428    -0.71600
O874        O  0.97552764  0.06018951  0.96125819    -0.71800
O875        O  0.04448130  0.03417059  0.95717692    -0.71600
O876        O  0.94952078  0.99046902  0.95753342    -0.71600
O877        O  0.95325935  0.98739689  0.50349010    -0.71600
O878        O  0.05017972  0.02673964  0.50133238    -0.71600
O879        O  0.98252689  0.05542611  0.50634742    -0.71600
O880        O  0.02085090  0.95852856  0.49879971    -0.71700
V881        V  0.99712102  0.01210960  0.95836020     1.35200
V882        V  0.00166672  0.00708248  0.50146005     1.35200
C883        C  0.02664592  0.94376645  0.47266423     0.77700
C884        C  0.97456704  0.07442208  0.48280906     0.77700
C885        C  0.06209007  0.03801807  0.98200086     0.77600
C886        C  0.93325733  0.98233618  0.98273016     0.77600
O887        O  0.00072346  0.07529214  0.77923015    -0.71600
O888        O  0.03382042  0.97608863  0.78561577    -0.71800
O889        O  0.06670901  0.04212645  0.77613308    -0.71600
O890        O  0.96763564  0.00957153  0.78860672    -0.71600
O891        O  0.96274800  0.00186281  0.73896011    -0.71600
O892        O  0.06097922  0.03590738  0.72642370    -0.71600
O893        O  0.02895269  0.96930249  0.73588701    -0.71600
O894        O  0.99382721  0.06866929  0.72966501    -0.71700
V895        V  0.01716108  0.02564685  0.78139921     1.35200
V896        V  0.01178123  0.01915260  0.73366926     1.35200
C897        C  0.99101775  0.08880870  0.75360463     0.77700
C898        C  0.03689893  0.95559606  0.76196116     0.77700
C899        C  0.08076534  0.04466505  0.74918890     0.77600
C900        C  0.94846822  0.99959775  0.76581190     0.77600
O901        O  0.54846702  0.47487095  0.53552048    -0.71600
O902        O  0.45091333  0.51287598  0.52958418    -0.71800
O903        O  0.48054117  0.44473855  0.53621132    -0.71600
O904        O  0.51867748  0.54257951  0.52907860    -0.71600
O905        O  0.52574703  0.53197328  0.97784600    -0.71600
O906        O  0.47990322  0.43725534  0.98406043    -0.71600
O907        O  0.45561231  0.50693022  0.97774483    -0.71600
O908        O  0.54994552  0.46233411  0.98391534    -0.71700
V909        V  0.49964625  0.49356727  0.53166179     1.35200
V910        V  0.50270651  0.48473389  0.98183677     1.35200
C911        C  0.56610596  0.46072137  0.00963928     0.77700
C912        C  0.43713150  0.51536478  0.00177493     0.77700
C913        C  0.47327242  0.42588858  0.51235562     0.77600
C914        C  0.52894133  0.55521396  0.50302378     0.77600
O915        O  0.44749093  0.53146155  0.75469875    -0.71600
O916        O  0.54155213  0.48488057  0.74979140    -0.71800
O917        O  0.51804436  0.55547974  0.75358331    -0.71600
O918        O  0.47132880  0.46099237  0.75125622    -0.71600
O919        O  0.47352064  0.46229384  0.70098133    -0.71600
O920        O  0.51339949  0.56013112  0.70366176    -0.71600
O921        O  0.54156995  0.49142825  0.69978950    -0.71600
O922        O  0.44521863  0.53133308  0.70446361    -0.71700
V923        V  0.49455536  0.50829802  0.75139452     1.35200
V924        V  0.49336691  0.51121280  0.70319158     1.35200
C925        C  0.43016900  0.53902882  0.73024893     0.77700
C926        C  0.55786148  0.48081444  0.72388103     0.77700
C927        C  0.52342480  0.57416413  0.72908917     0.77600
C928        C  0.46544216  0.44500207  0.72573763     0.77600
C929        C  0.39354867  0.55697820  0.73136735    -0.05000
C930        C  0.37960580  0.57349076  0.70446960    -0.04900
C931        C  0.34548932  0.59120405  0.70500924    -0.23100
C932        C  0.32434660  0.59234154  0.73237381     0.19100
C933        C  0.33776717  0.57552908  0.75954230     0.16300
C934        C  0.37245090  0.55816004  0.75895915    -0.18100
C935        C  0.31615231  0.57629393  0.78671681    -0.20000
C936        C  0.28152703  0.59330316  0.78689075    -0.12500
C937        C  0.26789214  0.61020330  0.75994589     0.04100
C938        C  0.28987953  0.60981876  0.73284359    -0.24700
H939        H  0.39533264  0.57310555  0.68295999     0.09200
H940        H  0.33557530  0.60388866  0.68395356     0.12800
H941        H  0.38282461  0.54534038  0.77980433     0.12800
H942        H  0.32583846  0.56339385  0.80775582     0.12500
H943        H  0.26523758  0.59252695  0.80804335     0.13100
H944        H  0.28027506  0.62316898  0.71200484     0.15000
C945        C  0.04941734  0.91664827  0.76501149    -0.05000
C946        C  0.06230282  0.90372681  0.79361774    -0.04900
C947        C  0.07465448  0.86732112  0.79687833    -0.23100
C948        C  0.07413769  0.84291340  0.77165031     0.19100
C949        C  0.06061701  0.85522898  0.74292506     0.16300
C950        C  0.04846924  0.89205920  0.73970700    -0.18100
C951        C  0.05970757  0.83052170  0.71791111    -0.20000
C952        C  0.07258016  0.79418871  0.72117045    -0.12500
C953        C  0.08703030  0.78168002  0.74948631     0.04100
C954        C  0.08735158  0.80655023  0.77469645    -0.24700
H955        H  0.06318825  0.92192546  0.81353248     0.09200
H956        H  0.08475826  0.85830541  0.81914432     0.12800
H957        H  0.03830047  0.90151834  0.71758315     0.12800
H958        H  0.04916202  0.83932644  0.69573846     0.12500
H959        H  0.07115951  0.77611323  0.70129549     0.13100
H960        H  0.09864352  0.79820469  0.79665062     0.15000
C961        C  0.14539440  0.66524927  0.82619829    -0.05000
C962        C  0.15812164  0.69945014  0.83764359    -0.04900
C963        C  0.16430389  0.70466092  0.86914692    -0.23100
C964        C  0.15978220  0.67523021  0.88992809     0.19100
C965        C  0.15047854  0.63980524  0.87861393     0.16300
C966        C  0.14357967  0.63494084  0.84683676    -0.18100
C967        C  0.14881818  0.60985425  0.89929381    -0.20000
C968        C  0.15373607  0.61557876  0.93104939    -0.12500
C969        C  0.15884478  0.65152320  0.94298615     0.04100
C970        C  0.16452081  0.68072589  0.92181225    -0.24700
H971        H  0.16397456  0.72233556  0.82217815     0.09200
H972        H  0.17291304  0.73169740  0.87720510     0.12800
H973        H  0.13759106  0.60749014  0.83819944     0.12800
H974        H  0.14313683  0.58213593  0.89101265     0.12500
H975        H  0.15206381  0.59197743  0.94649684     0.13100
H976        H  0.17249018  0.70785948  0.92993461     0.15000
C977        C  0.15499369  0.66705886  0.57636135    -0.05000
C978        C  0.16676556  0.69986480  0.59090766    -0.04900
C979        C  0.16676705  0.70293765  0.62316255    -0.23100
C980        C  0.15569129  0.67302379  0.64174081     0.19100
C981        C  0.14645179  0.63906618  0.62769448     0.16300
C982        C  0.14726712  0.63597420  0.59520488    -0.18100
C983        C  0.13692297  0.60872325  0.64645102    -0.20000
C984        C  0.13497086  0.61254476  0.67870262    -0.12500
C985        C  0.14129538  0.64706522  0.69292350     0.04100
C986        C  0.15405639  0.67646798  0.67412688    -0.24700
H987        H  0.17650016  0.72326602  0.57746723     0.09200
H988        H  0.17519746  0.72884762  0.63356081     0.12800
H989        H  0.14160703  0.60942931  0.58464764     0.12800
H990        H  0.13103374  0.58201583  0.63620463     0.12500
H991        H  0.12931571  0.58809330  0.69239869     0.13100
H992        H  0.16273602  0.70218246  0.68465257     0.15000
C993        C  0.27972822  0.60217222  0.01620491    -0.05000
C994        C  0.29757187  0.60608042  0.54452115    -0.04900
C995        C  0.33214222  0.58965385  0.54758282    -0.23100
C996        C  0.34814366  0.57012729  0.52284832     0.19100
C997        C  0.32911378  0.56732833  0.49462715     0.16300
C998        C  0.29405028  0.58344913  0.49182323    -0.18100
C999        C  0.34552415  0.54843774  0.46963762    -0.20000
C1000       C  0.38042067  0.53256966  0.47256608    -0.12500
C1001       C  0.39996267  0.53183368  0.99928179     0.04100
C1002       C  0.38296434  0.55359085  0.52580391    -0.24700
H1003       H  0.28674756  0.62146856  0.56406151     0.09200
H1004       H  0.34647001  0.59244356  0.56930793     0.12800
H1005       H  0.28050833  0.57940854  0.96972754     0.12800
H1006       H  0.33145536  0.54607654  0.44776328     0.12500
H1007       H  0.39247037  0.51828150  0.45283385     0.13100
H1008       H  0.39745823  0.55583035  0.54750353     0.15000
C1009       C  0.09771382  0.78150024  0.50012035    -0.05000
C1010       C  0.07599913  0.79338062  0.52549216    -0.04900
C1011       C  0.05663243  0.82664589  0.52435612    -0.23100
C1012       C  0.05823121  0.84875748  0.49774584     0.19100
C1013       C  0.07861084  0.83674750  0.47151980     0.16300
C1014       C  0.09639643  0.80374526  0.97412695    -0.18100
C1015       C  0.07827572  0.86106055  0.94790475    -0.20000
C1016       C  0.06056381  0.89558618  0.94867715    -0.12500
C1017       C  0.04242936  0.90601091  0.47101872     0.04100
C1018       C  0.04039422  0.88312065  0.49732233    -0.24700
H1019       H  0.07387247  0.77709955  0.54645389     0.09200
H1020       H  0.04071340  0.83530327  0.54450937     0.12800
H1021       H  0.11305276  0.79593308  0.95416630     0.12800
H1022       H  0.09340849  0.85298238  0.92717616     0.12500
H1023       H  0.06253765  0.91347698  0.92856881     0.13100
H1024       H  0.02544289  0.89239294  0.51781798     0.15000
C1025       C  0.61676240  0.72592971  0.75783784    -0.05000
C1026       C  0.61896280  0.70116244  0.78294423    -0.04900
C1027       C  0.60069957  0.66701178  0.78250193    -0.23100
C1028       C  0.57976279  0.65664597  0.75687861     0.19100
C1029       C  0.57710757  0.68112570  0.73144890     0.16300
C1030       C  0.59547018  0.71559349  0.73209454    -0.18100
C1031       C  0.55638864  0.67050341  0.70569868    -0.20000
C1032       C  0.53893960  0.63585143  0.70499191    -0.12500
C1033       C  0.54139342  0.61124108  0.73015866     0.04100
C1034       C  0.56173669  0.62207214  0.75618331    -0.24700
H1035       H  0.63550197  0.70790492  0.80281498     0.09200
H1036       H  0.60324761  0.64853690  0.80214303     0.12800
H1037       H  0.59299657  0.73428200  0.71262299     0.12800
H1038       H  0.55393266  0.68885919  0.68597215     0.12500
H1039       H  0.52336760  0.62833964  0.68472706     0.13100
H1040       H  0.56409018  0.60334477  0.77568908     0.15000
C1041       C  0.91081139  0.98428279  0.77000761    -0.05000
C1042       C  0.88931358  0.99130108  0.79674981    -0.04900
C1043       C  0.85402679  0.97560245  0.80019595    -0.23100
C1044       C  0.83999376  0.95206459  0.77721083     0.19100
C1045       C  0.86178178  0.94488582  0.75047687     0.16300
C1046       C  0.89655683  0.96124679  0.74693941    -0.18100
C1047       C  0.84878338  0.92102123  0.72764735    -0.16400
C1048       C  0.81433604  0.90453175  0.73091007    -0.12500
C1049       C  0.79160683  0.91174361  0.75688672     0.04100
C1050       C  0.80483422  0.93543728  0.78029612    -0.24700
H1051       H  0.89970749  0.00904648  0.81486232     0.09200
H1052       H  0.83790433  0.98158445  0.82090627     0.12800
H1053       H  0.91298175  0.95527947  0.72635825     0.12800
H1054       H  0.86539098  0.91490569  0.70722077     0.12500
H1055       H  0.80557860  0.88571112  0.71296854     0.13100
H1056       H  0.78774174  0.94127767  0.80047674     0.15000
C1057       C  0.66393302  0.83258820  0.94327756    -0.05000
C1058       C  0.67459290  0.79868083  0.92962058    -0.04900
C1059       C  0.67888674  0.79532194  0.89752041    -0.23100
C1060       C  0.67396652  0.82610351  0.87828611     0.19100
C1061       C  0.66692992  0.86105336  0.89178402     0.16300
C1062       C  0.66238182  0.86415387  0.92409527    -0.18100
C1063       C  0.66459545  0.89229791  0.87268869    -0.20000
C1064       C  0.66703199  0.88855985  0.84050729    -0.12500
C1065       C  0.67039197  0.85341605  0.82651795     0.04100
C1066       C  0.67605416  0.82252145  0.84584574    -0.24700
H1067       H  0.68036014  0.77460324  0.94355955     0.09200
H1068       H  0.68596203  0.76856458  0.88774842     0.12800
H1069       H  0.65725234  0.89110493  0.93430632     0.12800
H1070       H  0.66045728  0.91958115  0.88259451     0.12500
H1071       H  0.66533460  0.91327713  0.82637725     0.13100
H1072       H  0.68249902  0.79577565  0.83595407     0.15000
C1073       C  0.67231176  0.84794493  0.69229617    -0.05000
C1074       C  0.70559914  0.83753624  0.67749798    -0.04900
C1075       C  0.70858803  0.83585234  0.64522974    -0.23100
C1076       C  0.67785359  0.84283312  0.62693173     0.19100
C1077       C  0.64352762  0.84998796  0.64140276     0.16300
C1078       C  0.64081797  0.85171851  0.67388342    -0.18100
C1079       C  0.61227943  0.85431973  0.62313301    -0.20000
C1080       C  0.61533813  0.85318408  0.59083482    -0.12500
C1081       C  0.64988235  0.84923625  0.57592707     0.04100
C1082       C  0.68066523  0.84175693  0.59445625    -0.24700
H1083       H  0.72958969  0.83070754  0.69091429     0.09200
H1084       H  0.73491252  0.82892491  0.63461758     0.12800
H1085       H  0.61395342  0.85475298  0.68457911     0.12800
H1086       H  0.58538652  0.85826150  0.63381276     0.12500
H1087       H  0.59033162  0.85451140  0.57765756     0.13100
H1088       H  0.70678214  0.83449498  0.58372906     0.15000
C1089       C  0.59758133  0.72176524  0.51698290    -0.05000
C1090       C  0.57359575  0.71441053  0.54216418    -0.04900
C1091       C  0.55478012  0.68060371  0.54432066    -0.23100
C1092       C  0.55951647  0.65349698  0.52131533     0.19100
C1093       C  0.58729708  0.65615630  0.99664594     0.16300
C1094       C  0.60669494  0.68978410  0.99544343    -0.18100
C1095       C  0.59173345  0.62974952  0.97306500    -0.20000
C1096       C  0.57245446  0.59624914  0.97442720    -0.12500
C1097       C  0.54647585  0.59209813  0.50032948     0.04100
C1098       C  0.54158177  0.61901265  0.52363018    -0.24700
H1099       H  0.56922859  0.73478215  0.56020541     0.09200
H1100       H  0.53668783  0.67559513  0.56406058     0.12800
H1101       H  0.62579590  0.69481307  0.97639779     0.12800
H1102       H  0.61017016  0.63497050  0.95358184     0.12500
H1103       H  0.57666942  0.57618625  0.95606875     0.13100
H1104       H  0.52389765  0.61313072  0.54347688     0.15000
C1105       C  0.77271934  0.90669238  0.01080560    -0.05000
C1106       C  0.79971472  0.90311462  0.53563963    -0.04900
C1107       C  0.83457506  0.91942561  0.53515899    -0.23100
C1108       C  0.84804618  0.93659676  0.50817376     0.19100
C1109       C  0.82430285  0.93569356  0.98290113     0.16300
C1110       C  0.78899599  0.91985601  0.98304285    -0.18100
C1111       C  0.84099597  0.94740044  0.95507375    -0.20000
C1112       C  0.87645428  0.96244080  0.95504389    -0.12500
C1113       C  0.89574129  0.96635855  0.98285958     0.04100
C1114       C  0.88356391  0.95180686  0.50721532    -0.24700
H1115       H  0.79053932  0.88905001  0.55650192     0.09200
H1116       H  0.85125987  0.91801970  0.55573442     0.12800
H1117       H  0.77448390  0.91767001  0.96142451     0.12800
H1118       H  0.82675876  0.94466778  0.93330926     0.12500
H1119       H  0.88875368  0.97108624  0.93320037     0.13100
H1120       H  0.90056925  0.95038436  0.52761469     0.15000
C1121       C  0.48041079  0.04836917  0.74512307    -0.05000
C1122       C  0.50638540  0.04867533  0.72064036    -0.04900
C1123       C  0.53362908  0.02137785  0.71844622    -0.23100
C1124       C  0.53530257  0.99299140  0.74058616     0.19100
C1125       C  0.50910394  0.99211505  0.76512391     0.16300
C1126       C  0.48196276  0.01982668  0.76730767    -0.18100
C1127       C  0.51059692  0.96360324  0.78713949    -0.20000
C1128       C  0.53813899  0.93662653  0.78521972    -0.12500
C1129       C  0.56476990  0.93746963  0.76123563     0.04100
C1130       C  0.56289658  0.96569340  0.73876112    -0.24700
H1131       H  0.50595051  0.07046646  0.70341077     0.09200
H1132       H  0.55347001  0.02255579  0.69947846     0.12800
H1133       H  0.46178997  0.01895033  0.78603147     0.12800
H1134       H  0.49058020  0.96227196  0.80596911     0.12500
H1135       H  0.53853921  0.91491004  0.80251180     0.13100
H1136       H  0.58338130  0.96698582  0.72030916     0.15000
C1137       C  0.45074946  0.40659488  0.72497293    -0.05000
C1138       C  0.45725505  0.38417366  0.69886770    -0.04900
C1139       C  0.44650716  0.34696604  0.69885273    -0.23100
C1140       C  0.42864222  0.33149200  0.72483581     0.19100
C1141       C  0.42074641  0.35396155  0.75085935     0.16300
C1142       C  0.43198945  0.39135293  0.75083484    -0.18100
C1143       C  0.40250351  0.33835093  0.77666390    -0.20000
C1144       C  0.39318078  0.30062857  0.77702929    -0.12500
C1145       C  0.40180112  0.27773706  0.75157145     0.04100
C1146       C  0.41925322  0.29373209  0.72538733    -0.24700
H1147       H  0.47173196  0.39512824  0.67874558     0.09200
H1148       H  0.45266522  0.33013682  0.67865223     0.12800
H1149       H  0.42658660  0.40842376  0.77104726     0.12800
H1150       H  0.39585529  0.35520906  0.79673534     0.12500
H1151       H  0.37927156  0.28936568  0.79727847     0.13100
H1152       H  0.42665856  0.27660111  0.70568857     0.15000
C1153       C  0.24888217  0.10962090  0.75769255    -0.05000
C1154       C  0.22867333  0.11788445  0.78492042    -0.04900
C1155       C  0.19192427  0.10708645  0.78838912    -0.23100
C1156       C  0.17419546  0.08806673  0.76460913     0.19100
C1157       C  0.19350385  0.08057239  0.73665588     0.16300
C1158       C  0.23072143  0.09129899  0.73337261    -0.18100
C1159       C  0.17529058  0.06206110  0.71270320    -0.20000
C1160       C  0.13851864  0.05085522  0.71656226    -0.12500
C1161       C  0.11937105  0.05749673  0.74458663     0.04100
C1162       C  0.13751225  0.07628944  0.76847176    -0.24700
H1163       H  0.24120392  0.13272173  0.80378475     0.09200
H1164       H  0.17739655  0.11347560  0.80983740     0.12800
H1165       H  0.24572218  0.08444283  0.71227873     0.12800
H1166       H  0.18951406  0.05611476  0.69102677     0.12500
H1167       H  0.12522840  0.03643813  0.69778159     0.13100
H1168       H  0.12302067  0.08190205  0.79010405     0.15000
C1169       C  0.46303493  0.03853883  0.50722199    -0.05000
C1170       C  0.48811699  0.04205188  0.53156863    -0.04900
C1171       C  0.51752467  0.01747588  0.53432967    -0.23100
C1172       C  0.52231292  0.98870640  0.51290057     0.19100
C1173       C  0.49159579  0.97796118  0.98852202     0.16300
C1174       C  0.46229000  0.00320320  0.98628783    -0.18100
C1175       C  0.49588451  0.94896265  0.96711269    -0.20000
C1176       C  0.52498071  0.92378462  0.96985840    -0.12500
C1177       C  0.55555314  0.93381520  0.49507425     0.04100
C1178       C  0.55114783  0.96323160  0.51613919    -0.24700
H1179       H  0.48512951  0.06406936  0.54841969     0.09200
H1180       H  0.53633641  0.02079054  0.55339279     0.12800
H1181       H  0.44249886  0.00025787  0.96790511     0.12800
H1182       H  0.47656091  0.94555308  0.94843262     0.12500
H1183       H  0.52726902  0.90116046  0.95350454     0.13100
H1184       H  0.57014982  0.96634751  0.53506924     0.15000
C1185       C  0.38655926  0.13884155  0.81885903    -0.05000
C1186       C  0.41311377  0.16041813  0.83404076    -0.04900
C1187       C  0.41520226  0.16060214  0.86637374    -0.23100
C1188       C  0.39131331  0.13850325  0.88426194     0.19100
C1189       C  0.36721757  0.11389312  0.86932305     0.16300
C1190       C  0.36599762  0.11324778  0.83679079    -0.18100
C1191       C  0.34482693  0.09030594  0.88724247    -0.20000
C1192       C  0.34428549  0.09318487  0.91957083    -0.12500
C1193       C  0.36520027  0.12043696  0.93470007     0.04100
C1194       C  0.39110581  0.14059970  0.91677571    -0.24700
H1195       H  0.43218715  0.17752588  0.82092069     0.09200
H1196       H  0.43498751  0.17860647  0.87738105     0.12800
H1197       H  0.34910427  0.09267429  0.82566227     0.12800
H1198       H  0.32730065  0.07002345  0.87626642     0.12500
H1199       H  0.32742450  0.07392135  0.93267955     0.13100
H1200       H  0.41126454  0.15788890  0.92792207     0.15000
C1201       C  0.38170827  0.14380714  0.68464483    -0.05000
C1202       C  0.40820339  0.16607578  0.66929296    -0.04900
C1203       C  0.40913541  0.16895673  0.63703550    -0.23100
C1204       C  0.38506261  0.14790205  0.61917163     0.19100
C1205       C  0.36116372  0.12240767  0.63403740     0.16300
C1206       C  0.35992635  0.12021138  0.66654643    -0.18100
C1207       C  0.33965916  0.09882798  0.61605977    -0.20000
C1208       C  0.34059112  0.10166427  0.58381049    -0.12500
C1209       C  0.36131557  0.12956305  0.56868675     0.04100
C1210       C  0.38530063  0.15103368  0.58670091    -0.24700
H1211       H  0.42820539  0.18164485  0.68226512     0.09200
H1212       H  0.42889123  0.18752102  0.62606408     0.12800
H1213       H  0.34268062  0.09942226  0.67751926     0.12800
H1214       H  0.32239894  0.07783995  0.62691511     0.12500
H1215       H  0.32518812  0.08158920  0.57068972     0.13100
H1216       H  0.40510984  0.16929021  0.57560916     0.15000
C1217       C  0.45744851  0.38825622  0.51518254    -0.05000
C1218       C  0.46396642  0.36691801  0.54176306    -0.04900
C1219       C  0.45014996  0.33088675  0.54429259    -0.23100
C1220       C  0.42905034  0.31573198  0.52048773     0.19100
C1221       C  0.42155115  0.33725008  0.49394698     0.16300
C1222       C  0.43779449  0.36939274  0.98826963    -0.18100
C1223       C  0.40389230  0.31732368  0.96634362    -0.20000
C1224       C  0.39051849  0.28103440  0.96876661    -0.12500
C1225       C  0.39522046  0.26367648  0.49850373     0.04100
C1226       C  0.41588904  0.27921687  0.52257770    -0.24700
H1227       H  0.48042256  0.37787611  0.56036847     0.09200
H1228       H  0.45613494  0.31479564  0.56482933     0.12800
H1229       H  0.43423427  0.38498647  0.96703411     0.12800
H1230       H  0.39941251  0.33272680  0.94515719     0.12500
H1231       H  0.37578911  0.26954050  0.94942739     0.13100
H1232       H  0.42288638  0.26249045  0.54249593     0.15000
C1233       C  0.22940524  0.09642213  0.00470575    -0.05000
C1234       C  0.20908584  0.10109880  0.52863651    -0.04900
C1235       C  0.17290433  0.08804805  0.52925205    -0.23100
C1236       C  0.15607182  0.07674168  0.50190705     0.19100
C1237       C  0.17559865  0.07949551  0.47348395     0.16300
C1238       C  0.21207677  0.09242996  0.47300850    -0.18100
C1239       C  0.15848898  0.06867166  0.44600827    -0.20000
C1240       C  0.11241824  0.07312631  0.95487880    -0.12500
C1241       C  0.09905646  0.05506556  0.98163849     0.04100
C1242       C  0.12012938  0.06246384  0.50257208    -0.24700
H1243       H  0.22072049  0.10926827  0.55044273     0.09200
H1244       H  0.15819605  0.08647581  0.55124073     0.12800
H1245       H  0.21625285  0.11407075  0.95831041     0.12800
H1246       H  0.17296158  0.07071320  0.42394309     0.12500
H1247       H  0.09562737  0.07518904  0.93442292     0.13100
H1248       H  0.10537341  0.06014125  0.52450183     0.15000
C1249       C  0.93164274  0.48022452  0.74523566    -0.05000
C1250       C  0.93227855  0.50765439  0.72212829    -0.04900
C1251       C  0.95787630  0.53655137  0.72303055    -0.23100
C1252       C  0.98354883  0.53836992  0.74694510     0.19100
C1253       C  0.98261427  0.51153879  0.77077488     0.16300
C1254       C  0.95657782  0.48278702  0.76986401    -0.18100
C1255       C  0.00841990  0.51334933  0.79462829    -0.20000
C1256       C  0.03569037  0.54076630  0.79427521    -0.12500
C1257       C  0.03764737  0.56679795  0.77008896     0.04100
C1258       C  0.01083584  0.56590686  0.74687968    -0.24700
H1259       H  0.91302659  0.50664487  0.70324117     0.09200
H1260       H  0.95806125  0.55705771  0.70469626     0.12800
H1261       H  0.95669527  0.46164358  0.78766753     0.12800
H1262       H  0.00808337  0.49303343  0.81311280     0.12500
H1263       H  0.05616863  0.54075056  0.81225082     0.13100
H1264       H  0.01168070  0.58620882  0.72839867     0.15000
C1265       C  0.90168677  0.24384004  0.73281125    -0.05000
C1266       C  0.89592268  0.22030414  0.70730845    -0.04900
C1267       C  0.91326354  0.18567088  0.70545233    -0.23100
C1268       C  0.93667703  0.17386482  0.72908567     0.19100
C1269       C  0.94267509  0.19740546  0.75468934     0.16300
C1270       C  0.92531454  0.23203564  0.75633015    -0.18100
C1271       C  0.96579818  0.18590701  0.77848264    -0.20000
C1272       C  0.98210685  0.15098783  0.77744983    -0.12500
C1273       C  0.97601345  0.12691588  0.75246062     0.04100
C1274       C  0.95370458  0.13879297  0.72794883    -0.24700
H1275       H  0.87771082  0.22847630  0.68891345     0.09200
H1276       H  0.90817523  0.16805577  0.68565249     0.12800
H1277       H  0.93070797  0.25006017  0.77578995     0.12800
H1278       H  0.97080181  0.20369280  0.79819657     0.12500
H1279       H  0.99927976  0.14261630  0.79652618     0.13100
H1280       H  0.94863545  0.12038916  0.70863749     0.15000
C1281       C  0.71824372  0.40206638  0.74082154    -0.05000
C1282       C  0.69635193  0.39666927  0.76766025    -0.04900
C1283       C  0.66057419  0.41071388  0.76962914    -0.23100
C1284       C  0.64566341  0.43010882  0.74467184     0.19100
C1285       C  0.66680955  0.43471586  0.71719472     0.16300
C1286       C  0.70289429  0.42087221  0.71548378    -0.18100
C1287       C  0.65166111  0.45353925  0.69199755    -0.20000
C1288       C  0.61607319  0.46804925  0.69413421    -0.12500
C1289       C  0.59510300  0.46438304  0.72161414     0.04100
C1290       C  0.61006828  0.44516485  0.74679810    -0.24700
H1291       H  0.70683604  0.38160862  0.78731178     0.09200
H1292       H  0.64462261  0.40652971  0.79075922     0.12800
H1293       H  0.71917991  0.42572441  0.69468100     0.12800
H1294       H  0.66739106  0.45720303  0.67068185     0.12500
H1295       H  0.60515563  0.48267866  0.67437644     0.13100
H1296       H  0.59402633  0.44186203  0.76800404     0.15000
C1297       C  0.96511628  0.46538164  0.49610897    -0.05000
C1298       C  0.98953349  0.47163259  0.97150735    -0.04900
C1299       C  0.01844408  0.49688153  0.97141543    -0.23100
C1300       C  0.02140703  0.52274951  0.99532718     0.19100
C1301       C  0.99557032  0.52259945  0.02013711     0.16300
C1302       C  0.96645183  0.49233418  0.51958130    -0.18100
C1303       C  0.99482803  0.54798145  0.54120433    -0.20000
C1304       C  0.02161885  0.57589002  0.53944221    -0.12500
C1305       C  0.04797639  0.57615528  0.51523610     0.04100
C1306       C  0.04961671  0.54908721  0.99440942    -0.24700
H1307       H  0.98792682  0.45196605  0.95265514     0.09200
H1308       H  0.03822693  0.49648750  0.95237262     0.12800
H1309       H  0.94537932  0.49267860  0.53761273     0.12800
H1310       H  0.97461925  0.54859837  0.55991353     0.12500
H1311       H  0.02145947  0.59752447  0.55678447     0.13100
H1312       H  0.06953314  0.54832837  0.97550954     0.15000
C1313       C  0.87157060  0.37844466  0.92104867    -0.05000
C1314       C  0.90498922  0.38689010  0.90555475    -0.04900
C1315       C  0.90787828  0.38559885  0.87330576    -0.23100
C1316       C  0.87803493  0.37373465  0.85577957     0.19100
C1317       C  0.84561741  0.36153008  0.87099636     0.16300
C1318       C  0.84285261  0.36330116  0.90343060    -0.18100
C1319       C  0.81686519  0.34697167  0.85348856    -0.20000
C1320       C  0.81913825  0.34733195  0.82114666    -0.12500
C1321       C  0.84954104  0.36350582  0.80563386     0.04100
C1322       C  0.88027315  0.37336914  0.82332685    -0.24700
H1323       H  0.92960343  0.39317277  0.91819308     0.09200
H1324       H  0.93364337  0.39339692  0.86211974     0.12800
H1325       H  0.81865113  0.35200938  0.91487605     0.12800
H1326       H  0.79245076  0.33574087  0.86475864     0.12500
H1327       H  0.79677979  0.33524303  0.80833974     0.13100
H1328       H  0.90593698  0.38094166  0.81200594     0.15000
C1329       C  0.85250089  0.37908122  0.67185709    -0.05000
C1330       C  0.83109574  0.40704679  0.65814381    -0.04900
C1331       C  0.82947432  0.41060957  0.62594417    -0.23100
C1332       C  0.85044741  0.38723350  0.60675796     0.19100
C1333       C  0.87534186  0.36221492  0.62025665     0.16300
C1334       C  0.87712021  0.35929123  0.65259994    -0.18100
C1335       C  0.89843812  0.34089215  0.60116729    -0.20000
C1336       C  0.89540408  0.34283550  0.56902190    -0.12500
C1337       C  0.86820366  0.36491135  0.55515481     0.04100
C1338       C  0.84760867  0.38901538  0.57437267    -0.24700
H1339       H  0.81520905  0.42606686  0.67231532     0.09200
H1340       H  0.81153929  0.43135486  0.61608812     0.12800
H1341       H  0.89833366  0.34228658  0.66247135     0.12800
H1342       H  0.91890615  0.32273308  0.61107382     0.12500
H1343       H  0.91502873  0.32746693  0.55507798     0.13100
H1344       H  0.82994269  0.40973979  0.56430885     0.15000
C1345       C  0.95976261  0.11235036  0.48673414    -0.05000
C1346       C  0.96078714  0.12938091  0.51601402    -0.04900
C1347       C  0.94711162  0.16512712  0.52037206    -0.23100
C1348       C  0.93175192  0.18448796  0.49560070     0.19100
C1349       C  0.93008676  0.16757333  0.46613082     0.16300
C1350       C  0.94127803  0.13222155  0.96618144    -0.18100
C1351       C  0.91245923  0.18771543  0.94507270    -0.20000
C1352       C  0.90070270  0.22438054  0.94866658    -0.12500
C1353       C  0.90264018  0.24022795  0.47513704     0.04100
C1354       C  0.91829720  0.22058516  0.49986150    -0.24700
H1355       H  0.97248957  0.11513668  0.53564285     0.09200
H1356       H  0.94853162  0.17760850  0.54314991     0.12800
H1357       H  0.93792292  0.11815080  0.94422139     0.12800
H1358       H  0.90841994  0.17395678  0.92307574     0.12500
H1359       H  0.88750629  0.23775855  0.92935661     0.13100
H1360       H  0.92087107  0.23350073  0.52233343     0.15000
C1361       C  0.73497950  0.40276917  0.98814490    -0.05000
C1362       C  0.71383402  0.39447491  0.96197336    -0.04900
C1363       C  0.67635737  0.40317436  0.96128413    -0.23100
C1364       C  0.65920445  0.42038390  0.98676188     0.19100
C1365       C  0.67909411  0.42828444  0.51579385     0.16300
C1366       C  0.71672729  0.41886578  0.51624189    -0.18100
C1367       C  0.66174309  0.44439346  0.54174152    -0.20000
C1368       C  0.62469649  0.45501047  0.54063830    -0.12500
C1369       C  0.60472697  0.44778426  0.01140621     0.04100
C1370       C  0.62177458  0.43013764  0.98592505    -0.24700
H1371       H  0.72624662  0.38097655  0.94203488     0.09200
H1372       H  0.66083544  0.39658608  0.94075425     0.12800
H1373       H  0.73255122  0.42449757  0.53678384     0.12800
H1374       H  0.67695664  0.44926573  0.56275949     0.12500
H1375       H  0.61226373  0.46803837  0.56081487     0.13100
H1376       H  0.60605894  0.42438587  0.96531264     0.15000
loop_ 
_geom_bond_atom_site_label_1 
_geom_bond_atom_site_label_2 
_geom_bond_distance 
_geom_bond_site_symmetry_2 
_ccdc_geom_bond_type 
C1            C3   1.549       .  S
C1            C5   1.545       .  S
C1            C4   1.535       .  S
C1          C649   1.527       .  S
C2            C6   1.548       .  S
C2            C8   1.528       .  S
C2            C7   1.538       .  S
C2          C625   1.528       .  S
C3           C11   1.382       .  A
C3          C694   1.398   1_554  A
C4           C15   1.381       .  A
C4          C695   1.391   1_554  A
C5           C19   1.382       .  A
C5          C696   1.387   1_554  A
C6            C9   1.380       .  A
C6          C691   1.399       .  A
C7           C13   1.375       .  A
C7          C692   1.390       .  A
C8           C16   1.373       .  A
C8          C693   1.387       .  A
C9           H22   1.081       .  S
C9          N698   1.361       .  A
N10          C11   1.361   1_556  A
N10         C697   1.359       .  A
N10        C1361   1.444       .  S
C11          H12   1.081       .  S
C13          H23   1.081       .  S
C13          N14   1.356       .  A
N14         C703   1.359       .  A
N14        C1297   1.438       .  S
C15          H21   1.082       .  S
C15         N702   1.359   1_554  A
C16          H18   1.081       .  S
C16         N705   1.359       .  A
N17          C19   1.362   1_556  A
N17         C704   1.359       .  A
N17         C665   1.446       .  S
C19          H20   1.081       .  S
C24          C26   1.550       .  S
C24          C28   1.546       .  S
C24          C27   1.536       .  S
C24         C641   1.531       .  S
C25          C29   1.530       .  S
C25          C31   1.537       .  S
C25          C30   1.539       .  S
C25         C633   1.527       .  S
C26          C34   1.385       .  A
C26          C29   1.393       .  A
C27          C38   1.374       .  A
C27          C30   1.391       .  A
C28          C42   1.382       .  A
C28          C31   1.393       .  A
C29          C32   1.371       .  A
C30          C36   1.379       .  A
C31          C39   1.375       .  A
C32          H45   1.081       .  S
C32          N33   1.359       .  A
N33          C34   1.362       .  A
N33         C577   1.447       .  S
C34          H35   1.079       .  S
C36          H46   1.081       .  S
C36          N37   1.361       .  A
N37          C38   1.361       .  A
N37         C561   1.445       .  S
C38          H44   1.081       .  S
C39          H41   1.081       .  S
C39          N40   1.355       .  A
N40          C42   1.359       .  A
N40         C593   1.439       .  S
C42          H43   1.081       .  S
C47          C49   1.545       .  S
C47          C51   1.535       .  S
C47          C50   1.528       .  S
C47         C521   1.531       .  S
C48          C52   1.549       .  S
C48          C54   1.546       .  S
C48          C53   1.535       .  S
C48         C505   1.531       .  S
C49          C57   1.381       .  A
C49         C740   1.399   1_554  A
C50          C61   1.372       .  A
C50         C741   1.388   1_554  A
C51          C65   1.372       .  A
C51         C742   1.394   1_554  A
C52          C55   1.381       .  A
C52         C737   1.400       .  A
C53          C59   1.380       .  A
C53         C738   1.388       .  A
C54          C62   1.380       .  A
C54         C739   1.390       .  A
C55          H68   1.080       .  S
C55         N744   1.359       .  A
N56          C57   1.360   1_556  A
N56         C743   1.360       .  A
N56         C537   1.448       .  S
C57          H58   1.080       .  S
C59          H69   1.082       .  S
C59         N748   1.362       .  A
N60          C61   1.359       .  A
N60         C747   1.361   1_554  A
N60         C481   1.440       .  S
C61          H67   1.082       .  S
C62          H64   1.079       .  S
C62         N751   1.364       .  A
N63          C65   1.356       .  A
N63         C750   1.363   1_554  A
N63        C1233   1.443       .  S
C65          H66   1.081       .  S
C70          C72   1.547       .  S
C70          C74   1.546       .  S
C70          C73   1.528       .  S
C70         C497   1.530       .  S
C71          C75   1.545       .  S
C71          C77   1.550       .  S
C71          C76   1.534       .  S
C71         C513   1.528       .  S
C72          C80   1.383       .  A
C72          C75   1.393       .  A
C73          C84   1.376       .  A
C73          C76   1.385       .  A
C74          C88   1.376       .  A
C74          C77   1.398       .  A
C75          C78   1.380       .  A
C76          C82   1.378       .  A
C77          C85   1.387       .  A
C78          H91   1.081       .  S
C78          N79   1.360       .  A
N79          C80   1.362       .  A
N79         C457   1.450       .  S
C80          H81   1.080       .  S
C82          H92   1.082       .  S
C82          N83   1.361       .  A
N83          C84   1.360       .  A
N83         C433   1.443       .  S
C84          H90   1.082       .  S
C85          H87   1.081       .  S
C85          N86   1.365       .  A
N86          C88   1.361       .  A
N86         C465   1.456       .  S
C88          H89   1.078       .  S
C93          C95   1.539       .  S
C93          C97   1.540       .  S
C93          C96   1.542       .  S
C93         C393   1.532       .  S
C94          C98   1.543       .  S
C94         C100   1.530       .  S
C94          C99   1.539       .  S
C94         C369   1.527       .  S
C95         C103   1.382       .  A
C95         C786   1.405   1_554  A
C96         C107   1.374       .  A
C96         C787   1.395   1_554  A
C97         C111   1.380       .  A
C97         C788   1.387   1_554  A
C98         C101   1.382       .  A
C98         C783   1.403       .  A
C99         C105   1.377       .  A
C99         C784   1.394       .  A
C100        C108   1.374       .  A
C100        C785   1.388       .  A
C101        H114   1.081       .  S
C101        N790   1.357       .  A
N102        C103   1.357       .  A
N102        C789   1.355   1_554  A
N102        C401   1.446       .  S
C103        H104   1.082       .  S
C105        H115   1.081       .  S
C105        N794   1.358       .  A
N106        C107   1.356   1_556  A
N106        C793   1.360       .  A
N106        C489   1.441       .  S
C107        H113   1.080       .  S
C108        H110   1.081       .  S
C108        N797   1.359       .  A
N109        C111   1.363       .  A
N109        C796   1.361   1_554  A
N109       C1105   1.448       .  S
C111        H112   1.081       .  S
C116        C118   1.548       .  S
C116        C120   1.537       .  S
C116        C119   1.539       .  S
C116        C377   1.528       .  S
C117        C121   1.536       .  S
C117        C123   1.533       .  S
C117        C122   1.551       .  S
C117        C385   1.528       .  S
C118        C126   1.389       .  A
C118        C121   1.405       .  A
C119        C130   1.375       .  A
C119        C122   1.397       .  A
C120        C134   1.383       .  A
C120        C123   1.381       .  A
C121        C124   1.380       .  A
C122        C128   1.383       .  A
C123        C131   1.374       .  A
C124        H137   1.080       .  S
C124        N125   1.355       .  A
N125        C126   1.359       .  A
N125        C337   1.454       .  S
C126        H127   1.080       .  S
C128        H138   1.080       .  S
C128        N129   1.363       .  A
N129        C130   1.358       .  A
N129        C441   1.445       .  S
C130        H136   1.081       .  S
C131        H133   1.080       .  S
C131        N132   1.361       .  A
N132        C134   1.364       .  A
N132        C361   1.450       .  S
C134        H135   1.082       .  S
C139        C141   1.549       .  S
C139        C143   1.538       .  S
C139        C142   1.542       .  S
C139        C281   1.535       .  S
C140        C144   1.547       .  S
C140        C146   1.525       .  S
C140        C145   1.540       .  S
C140        C289   1.528       .  S
C141        C149   1.389       .  A
C141        C832   1.411       .  A
C142        C153   1.375       .  A
C142        C833   1.393       .  A
C143        C157   1.382       .  A
C143        C834   1.384       .  A
C144        C147   1.381       .  A
C144        C829   1.411   1_554  A
C145        C151   1.381       .  A
C145        C830   1.391   1_554  A
C146        C154   1.371       .  A
C146        C831   1.382   1_554  A
C147        H160   1.080       .  S
C147        N148   1.353       .  A
N148        C837   1.355   1_554  A
N148        C321   1.448       .  S
C149        H150   1.081       .  S
C149        N836   1.353       .  A
C151        H161   1.081       .  S
C151        N152   1.359       .  A
N152        C841   1.360   1_554  A
N152        C617   1.443       .  S
C153        H159   1.081       .  S
C153        N840   1.359       .  A
C154        H156   1.080       .  S
C154        N155   1.362       .  A
N155        C845   1.367   1_554  A
N155        C993   1.452       .  S
C157        H158   1.081       .  S
C157        N843   1.367       .  A
C162        C164   1.532       .  S
C162        C166   1.548       .  S
C162        C165   1.545       .  S
C162        C273   1.529       .  S
C163        C167   1.525       .  S
C163        C169   1.541       .  S
C163        C168   1.542       .  S
C163        C297   1.526       .  S
C164        C172   1.377       .  A
C164        C167   1.382       .  A
C165        C176   1.381       .  A
C165        C168   1.398       .  A
C166        C180   1.380       .  A
C166        C169   1.395       .  A
C167        C170   1.370       .  A
C168        C174   1.374       .  A
C169        C177   1.380       .  A
C170        H183   1.081       .  S
C170        N171   1.362       .  A
N171        C172   1.363       .  A
N171        C249   1.446       .  S
C172        H173   1.081       .  S
C174        H184   1.081       .  S
C174        N175   1.360       .  A
N175        C176   1.363       .  A
N175        C569   1.445       .  S
C176        H182   1.082       .  S
C177        H179   1.079       .  S
C177        N178   1.359       .  A
N178        C180   1.362       .  A
N178        C265   1.450       .  S
C180        H181   1.081       .  S
O185        V193   1.913   1_465  S
O185        C883   1.267       .  A
O186        V193   1.910       .  S
O186        C884   1.267       .  A
O187        V193   1.899   1_455  S
O187        C197   1.264       .  A
O188        V193   1.900   1_565  S
O188        C198   1.265       .  A
O189        V194   1.900   1_565  S
O189        C886   1.265   1_554  A
O190        V194   1.900   1_455  S
O190        C885   1.265   1_554  A
O191        V194   1.896       .  S
O191        C196   1.264   1_554  A
O192        V194   1.896   1_465  S
O192        C195   1.264   1_554  A
V193        V882   2.086   1_655  T
V194        V881   2.085   1_554  T
C195        O873   1.267       .  A
C195        C329   1.484       .  S
C196        O874   1.267       .  A
C196        C657   1.482       .  S
C197        O878   1.265       .  A
C197        C553   1.478       .  S
C198        O877   1.264       .  A
C198        C425   1.477       .  S
O199        V207   1.891   1_655  S
O199        C209   1.263       .  A
O200        V207   1.892   1_565  S
O200        C210   1.263       .  A
O201        V207   1.907       .  S
O201        C211   1.267       .  A
O202        V207   1.908   1_655  S
O202        C212   1.266   1_545  A
O203        V208   1.897   1_655  S
O203        C212   1.264   1_545  A
O204        V208   1.903       .  S
O204        C211   1.265       .  A
O205        V208   1.909   1_565  S
O205        C210   1.267       .  A
O206        V208   1.906   1_655  S
O206        C209   1.266       .  A
V207        V208   2.086       .  T
C209        C585   1.478       .  S
C210        C257   1.481       .  S
C211        C473   1.487       .  S
C212        C353   1.482       .  S
O213        V221   1.903       .  S
O213        C911   1.266       .  A
O214        V221   1.903       .  S
O214        C912   1.266       .  A
O215        V221   1.902       .  S
O215        C225   1.266       .  A
O216        V221   1.900       .  S
O216        C226   1.264       .  A
O217        V222   1.901       .  S
O217        C914   1.266       .  A
O218        V222   1.902       .  S
O218        C913   1.265       .  A
O219        V222   1.900       .  S
O219        C224   1.265       .  A
O220        V222   1.903       .  S
O220        C223   1.266       .  A
V221        V910   2.085   1_554  T
V222        V909   2.085       .  T
C223        O901   1.267       .  A
C223        C681   1.486       .  S
C224        O902   1.266       .  A
C224        C313   1.483       .  S
C225        O906   1.266   1_554  A
C225        C529   1.482       .  S
C226        O905   1.267   1_554  A
C226        C409   1.481   1_554  S
O227        V235   1.900       .  S
O227        C237   1.265       .  A
O228        V235   1.902       .  S
O228        C238   1.265       .  A
O229        V235   1.902       .  S
O229        C239   1.266       .  A
O230        V235   1.905       .  S
O230        C240   1.265       .  A
O231        V236   1.906       .  S
O231        C240   1.267       .  A
O232        V236   1.906       .  S
O232        C239   1.266       .  A
O233        V236   1.894       .  S
O233        C238   1.263       .  A
O234        V236   1.894       .  S
O234        C237   1.264       .  A
V235        V236   2.084       .  T
C237        C241   1.475       .  S
C238        C601   1.474       .  S
C239        C345   1.486       .  S
C240        C449   1.486       .  S
C241        C242   1.405       .  A
C241        C246   1.406       .  A
C242        C243   1.394       .  A
C242        H251   1.083       .  S
C243        C244   1.401       .  A
C243        H252   1.084       .  S
C244        C250   1.400       .  A
C244        C245   1.412       .  A
C245        C247   1.401       .  A
C245        C246   1.404       .  A
C246        H253   1.084       .  S
C247        C248   1.398       .  A
C247        H254   1.084       .  S
C248        C249   1.409       .  A
C248        H255   1.081       .  S
C249        C250   1.409       .  A
C250        H256   1.081       .  S
C257        C258   1.406       .  A
C257        C262   1.408       .  A
C258        C259   1.394       .  A
C258        H267   1.083       .  S
C259        C260   1.400       .  A
C259        H268   1.084       .  S
C260        C266   1.402       .  A
C260        C261   1.413       .  A
C261        C263   1.401       .  A
C261        C262   1.408       .  A
C262        H269   1.084       .  S
C263        C264   1.400       .  A
C263        H270   1.084       .  S
C264        C265   1.411       .  A
C264        H271   1.080       .  S
C265        C266   1.408       .  A
C266        H272   1.081       .  S
C273        C274   1.410       .  A
C273        C278   1.412       .  A
C274        C275   1.395       .  A
C274        H283   1.080       .  S
C275        C276   1.398       .  A
C275        H284   1.084       .  S
C276        C282   1.405       .  A
C276        C277   1.411       .  A
C277        C279   1.403       .  A
C277        C278   1.410       .  A
C278        H285   1.082       .  S
C279        C280   1.402       .  A
C279        H286   1.083       .  S
C280        C281   1.409       .  A
C280        H287   1.082       .  S
C281        C282   1.409       .  A
C282        H288   1.081       .  S
C289        C290   1.409       .  A
C289        C294   1.410       .  A
C290        C291   1.395       .  A
C290        H299   1.081       .  S
C291        C292   1.399       .  A
C291        H300   1.084       .  S
C292        C298   1.401       .  A
C292        C293   1.410       .  A
C293        C295   1.401       .  A
C293        C294   1.405       .  A
C294        H301   1.082       .  S
C295        C296   1.399       .  A
C295        H302   1.083       .  S
C296        C297   1.409       .  A
C296        H303   1.081       .  S
C297        C298   1.409       .  A
C298        H304   1.081       .  S
C305        C994   1.412       .  A
C305        C998   1.410       .  A
C305        N843   1.452       .  S
C306        C307   1.395       .  A
C306        C993   1.412       .  A
C306        H315   1.079       .  S
C307        C308   1.398       .  A
C307        H316   1.084       .  S
C308        C314   1.404       .  A
C308        C309   1.413   1_554  A
C309        C311   1.403       .  A
C309        C310   1.408       .  A
C310        C993   1.411   1_556  A
C310       H1005   1.082       .  S
C311        C312   1.399       .  A
C311        H318   1.084       .  S
C312       C1001   1.406       .  A
C312        H319   1.083       .  S
C313       C1000   1.406       .  A
C313       C1002   1.406       .  A
C314       C1001   1.405   1_554  A
C314        H320   1.084       .  S
H317        C998   1.081       .  S
C321        C322   1.408       .  A
C321       C1014   1.411   1_554  A
C322        C323   1.395       .  A
C322        H331   1.081       .  S
C323        C324   1.399       .  A
C323        H332   1.084       .  S
C324        C330   1.403       .  A
C324        C325   1.413   1_554  A
C325       C1015   1.405       .  A
C325       C1014   1.410       .  A
C326       C1009   1.413       .  A
C326       C1013   1.408       .  A
C326        H333   1.083       .  S
C327        C328   1.403       .  A
C327       C1013   1.406       .  A
C327        H334   1.083       .  S
C328       C1017   1.405       .  A
C328        H335   1.083       .  S
C329        C330   1.406   1_556  A
C329       C1016   1.406       .  A
C330        H336   1.084       .  S
C337        C338   1.410       .  A
C337        C342   1.415       .  A
C338        C339   1.397       .  A
C338        H347   1.080       .  S
C339        C340   1.400       .  A
C339        H348   1.083       .  S
C340        C346   1.405       .  A
C340        C341   1.411       .  A
C341        C343   1.404       .  A
C341        C342   1.408       .  A
C342        H349   1.080       .  S
C343        C344   1.401       .  A
C343        H350   1.083       .  S
C344        C345   1.407       .  A
C344        H351   1.083       .  S
C345        C346   1.407       .  A
C346        H352   1.084       .  S
C353        C354   1.406       .  A
C353        C358   1.406       .  A
C354        C355   1.401       .  A
C354        H363   1.083       .  S
C355        C356   1.404       .  A
C355        H364   1.084       .  S
C356        C362   1.408       .  A
C356        C357   1.413       .  A
C357        C359   1.399       .  A
C357        C358   1.403       .  A
C358        H365   1.085       .  S
C359        C360   1.395       .  A
C359        H366   1.084       .  S
C360        C361   1.410       .  A
C360        H367   1.080       .  S
C361        C362   1.411       .  A
C362        H368   1.082       .  S
C369        C370   1.409       .  A
C369        C374   1.410       .  A
C370        C371   1.398       .  A
C370        H379   1.080       .  S
C371        C372   1.401       .  A
C371        H380   1.084       .  S
C372        C378   1.403       .  A
C372        C373   1.410       .  A
C373        C375   1.401       .  A
C373        C374   1.403       .  A
C374        H381   1.083       .  S
C375        C376   1.397       .  A
C375        H382   1.083       .  S
C376        C377   1.408       .  A
C376        H383   1.083       .  S
C377        C378   1.411       .  A
C378        H384   1.080       .  S
C385        C386   1.411       .  A
C385        C390   1.408       .  A
C386        C387   1.395       .  A
C386        H395   1.082       .  S
C387        C388   1.398       .  A
C387        H396   1.084       .  S
C388        C394   1.405       .  A
C388        C389   1.412       .  A
C389        C391   1.399       .  A
C389        C390   1.407       .  A
C390        H397   1.079       .  S
C391        C392   1.398       .  A
C391        H398   1.084       .  S
C392        C393   1.411       .  A
C392        H399   1.079       .  S
C393        C394   1.408       .  A
C394        H400   1.083       .  S
C401        C402   1.407       .  A
C401       C1094   1.409   1_554  A
C402        C403   1.400       .  A
C402        H411   1.081       .  S
C403        C404   1.403       .  A
C403        H412   1.084       .  S
C404        C410   1.406       .  A
C404       C1093   1.412   1_554  A
C405        C407   1.401       .  A
C405        C406   1.402       .  A
C405       C1092   1.413       .  A
C406       C1089   1.407       .  A
C406        H413   1.083       .  S
C407        C408   1.396       .  A
C407        H414   1.083       .  S
C408       C1097   1.404       .  A
C408        H415   1.083       .  S
C409        C410   1.408   1_556  A
C409       C1096   1.405       .  A
C410        H416   1.084       .  S
C417        C422   1.408       .  A
C417       C1106   1.406       .  A
C417        N797   1.442       .  S
C418        C419   1.397       .  A
C418       C1105   1.409       .  A
C418        H427   1.081       .  S
C419        C420   1.400       .  A
C419        H428   1.084       .  S
C420        C426   1.403       .  A
C420       C1109   1.412   1_554  A
C421        C423   1.403       .  A
C421        C422   1.403       .  A
C421       C1108   1.413       .  A
C422        H429   1.083       .  S
C423        C424   1.398       .  A
C423        H430   1.084       .  S
C424        C425   1.406       .  A
C424        H431   1.083       .  S
C425       C1114   1.405       .  A
C426       C1113   1.406   1_554  A
C426        H432   1.084       .  S
C433        C434   1.406       .  A
C433        C438   1.408       .  A
C434        C435   1.398       .  A
C434        H443   1.082       .  S
C435        C436   1.402       .  A
C435        H444   1.084       .  S
C436        C442   1.405   1_545  A
C436        C437   1.413       .  A
C437        C439   1.401   1_545  A
C437        C438   1.404       .  A
C438        H445   1.083       .  S
C439        C440   1.398       .  A
C439        H446   1.084       .  S
C440        C441   1.408       .  A
C440        H447   1.082       .  S
C441        C442   1.408       .  A
C442        H448   1.082       .  S
C449        C450   1.405       .  A
C449        C454   1.410       .  A
C450        C451   1.398       .  A
C450        H459   1.083       .  S
C451        C452   1.402       .  A
C451        H460   1.084       .  S
C452        C458   1.406       .  A
C452        C453   1.412       .  A
C453        C455   1.403       .  A
C453        C454   1.409       .  A
C454        H461   1.084       .  S
C455        C456   1.401       .  A
C455        H462   1.084       .  S
C456        C457   1.408       .  A
C456        H463   1.081       .  S
C457        C458   1.411       .  A
C458        H464   1.082       .  S
C465        C466   1.413       .  A
C465        C470   1.413       .  A
C466        C467   1.396       .  A
C466        H475   1.079       .  S
C467        C468   1.398       .  A
C467        H476   1.084       .  S
C468        C474   1.407       .  A
C468        C469   1.413       .  A
C469        C471   1.403       .  A
C469        C470   1.410       .  A
C470        H477   1.082       .  S
C471        C472   1.401       .  A
C471        H478   1.084       .  S
C472        C473   1.407       .  A
C472        H479   1.083       .  S
C473        C474   1.407       .  A
C474        H480   1.084       .  S
C481        C482   1.406       .  A
C481       C1174   1.408   1_554  A
C482        C483   1.393       .  A
C482        H491   1.082       .  S
C483        C484   1.400   1_545  A
C483        H492   1.084       .  S
C484        C490   1.399       .  A
C484       C1173   1.413   1_554  A
C485        C487   1.402       .  A
C485        C486   1.405   1_565  A
C485       C1172   1.414       .  A
C486       C1169   1.406       .  A
C486        H493   1.084       .  S
C487        C488   1.398       .  A
C487        H494   1.084       .  S
C488       C1177   1.407       .  A
C488        H495   1.082       .  S
C489        C490   1.406   1_556  A
C489       C1176   1.405       .  A
C490        H496   1.083       .  S
C497        C498   1.409       .  A
C497        C502   1.411       .  A
C498        C499   1.398       .  A
C498        H507   1.081       .  S
C499        C500   1.401       .  A
C499        H508   1.084       .  S
C500        C506   1.406       .  A
C500        C501   1.410       .  A
C501        C503   1.401       .  A
C501        C502   1.405       .  A
C502        H509   1.081       .  S
C503        C504   1.398       .  A
C503        H510   1.084       .  S
C504        C505   1.409       .  A
C504        H511   1.081       .  S
C505        C506   1.410       .  A
C506        H512   1.080       .  S
C513        C514   1.410       .  A
C513        C518   1.410       .  A
C514        C515   1.395       .  A
C514        H523   1.081       .  S
C515        C516   1.398       .  A
C515        H524   1.083       .  S
C516        C522   1.405       .  A
C516        C517   1.412       .  A
C517        C519   1.400       .  A
C517        C518   1.408       .  A
C518        H525   1.080       .  S
C519        C520   1.398       .  A
C519        H526   1.083       .  S
C520        C521   1.411       .  A
C520        H527   1.082       .  S
C521        C522   1.407       .  A
C522        H528   1.078       .  S
C529        C530   1.405       .  A
C529       C1222   1.408   1_554  A
C530        C531   1.397       .  A
C530        H539   1.083       .  S
C531        C532   1.402       .  A
C531        H540   1.084       .  S
C532        C538   1.404       .  A
C532        C533   1.413   1_554  A
C533       C1223   1.403       .  A
C533       C1222   1.407       .  A
C534       C1217   1.407       .  A
C534       C1221   1.406       .  A
C534        H541   1.085       .  S
C535        C536   1.399       .  A
C535       C1221   1.402       .  A
C535        H542   1.084       .  S
C536       C1225   1.408       .  A
C536        H543   1.081       .  S
C537        C538   1.409   1_556  A
C537       C1224   1.409       .  A
C538        H544   1.083       .  S
C545       C1234   1.412       .  A
C545       C1238   1.412       .  A
C545        N751   1.453       .  S
C546        C547   1.394       .  A
C546       C1233   1.410       .  A
C546        H555   1.081       .  S
C547        C548   1.399       .  A
C547        H556   1.084       .  S
C548        C554   1.402       .  A
C548        C549   1.414   1_554  A
C549        C551   1.401       .  A
C549        C550   1.404       .  A
C550       C1233   1.406   1_556  A
C550       H1245   1.083       .  S
C551       C1240   1.397       .  A
C551        H558   1.084       .  S
C552        C553   1.406       .  A
C552       C1239   1.397       .  A
C552        H559   1.083       .  S
C553       C1242   1.405       .  A
C554       C1241   1.404   1_554  A
C554        H560   1.084       .  S
H557       C1238   1.080       .  S
C561        C562   1.407       .  A
C561        C566   1.410       .  A
C562        C563   1.396       .  A
C562        H571   1.082       .  S
C563        C564   1.401       .  A
C563        H572   1.083       .  S
C564        C570   1.403   1_655  A
C564        C565   1.412       .  A
C565        C567   1.403   1_655  A
C565        C566   1.405       .  A
C566        H573   1.082       .  S
C567        C568   1.399       .  A
C567        H574   1.083   1_455  S
C568        C569   1.407       .  A
C568        H575   1.082       .  S
C569        C570   1.408       .  A
C570        H576   1.082       .  S
C577        C578   1.409       .  A
C577        C582   1.408       .  A
C578        C579   1.400       .  A
C578        H587   1.081       .  S
C579        C580   1.402       .  A
C579        H588   1.084       .  S
C580        C586   1.406       .  A
C580        C581   1.413       .  A
C581        C583   1.400       .  A
C581        C582   1.401       .  A
C582        H589   1.082       .  S
C583        C584   1.394       .  A
C583        H590   1.084       .  S
C584        C585   1.406       .  A
C584        H591   1.083       .  S
C585        C586   1.407       .  A
C586        H592   1.084       .  S
C593        C594   1.406       .  A
C593        C598   1.406       .  A
C594        C595   1.395       .  A
C594        H603   1.082       .  S
C595        C596   1.400       .  A
C595        H604   1.084       .  S
C596        C602   1.402       .  A
C596        C597   1.415       .  A
C597        C599   1.401       .  A
C597        C598   1.403       .  A
C598        H605   1.083       .  S
C599        C600   1.396       .  A
C599        H606   1.084       .  S
C600        C601   1.405       .  A
C600        H607   1.083       .  S
C601        C602   1.403       .  A
C602        H608   1.084       .  S
C609        C614   1.408   1_556  A
C609       C1298   1.405       .  A
C609        N702   1.439       .  S
C610        C611   1.392   1_655  A
C610       C1297   1.405       .  A
C610        H619   1.083       .  S
C611        C612   1.399       .  A
C611        H620   1.084       .  S
C612        C618   1.399       .  A
C612        C613   1.414   1_455  A
C613       C1303   1.404       .  A
C613       C1302   1.408       .  A
C614       C1301   1.409       .  A
C614        H621   1.084       .  S
C615        C616   1.402   1_655  A
C615       C1301   1.404       .  A
C615        H622   1.084       .  S
C616        C617   1.408       .  A
C616        H623   1.082       .  S
C617       C1306   1.404   1_554  A
C618       C1305   1.405       .  A
C618        H624   1.083       .  S
C625        C626   1.411       .  A
C625        C630   1.408       .  A
C626        C627   1.396       .  A
C626        H635   1.079       .  S
C627        C628   1.398       .  A
C627        H636   1.084       .  S
C628        C634   1.404       .  A
C628        C629   1.411       .  A
C629        C631   1.398       .  A
C629        C630   1.404       .  A
C630        H637   1.081       .  S
C631        C632   1.395       .  A
C631        H638   1.084       .  S
C632        C633   1.410       .  A
C632        H639   1.081       .  S
C633        C634   1.407       .  A
C634        H640   1.082       .  S
C641        C642   1.411       .  A
C641        C646   1.407       .  A
C642        C643   1.398       .  A
C642        H651   1.081       .  S
C643        C644   1.400       .  A
C643        H652   1.084       .  S
C644        C650   1.406       .  A
C644        C645   1.411       .  A
C645        C647   1.398       .  A
C645        C646   1.403       .  A
C646        H653   1.078       .  S
C647        C648   1.394       .  A
C647        H654   1.084       .  S
C648        C649   1.410       .  A
C648        H655   1.080       .  S
C649        C650   1.410       .  A
C650        H656   1.081       .  S
C657        C658   1.407   1_556  A
C657       C1350   1.407       .  A
C658        C659   1.396       .  A
C658        H667   1.083       .  S
C659        C660   1.401   1_554  A
C659        H668   1.084       .  S
C660        C666   1.404   1_556  A
C660        C661   1.413       .  A
C661       C1351   1.402       .  A
C661       C1350   1.407       .  A
C662       C1345   1.406       .  A
C662       C1349   1.407       .  A
C662        H669   1.084       .  S
C663        C664   1.398       .  A
C663       C1349   1.401       .  A
C663        H670   1.084       .  S
C664       C1353   1.410       .  A
C664        H671   1.081       .  S
C665        C666   1.408   1_556  A
C665       C1352   1.409       .  A
C666        H672   1.083       .  S
C673        C674   1.408       .  A
C673       C1366   1.411       .  A
C673        N698   1.448       .  S
C674        C675   1.398       .  A
C674        H683   1.082       .  S
C675        C676   1.401       .  A
C675        H684   1.084       .  S
C676        C682   1.407       .  A
C676       C1365   1.413       .  A
C677        C679   1.402       .  A
C677        C678   1.406       .  A
C677       C1364   1.414   1_554  A
C678       C1361   1.407   1_554  A
C678        H685   1.083       .  S
C679        C680   1.398       .  A
C679        H686   1.084       .  S
C680       C1369   1.406       .  A
C680        H687   1.083       .  S
C681        C682   1.408       .  A
C681       C1368   1.407       .  A
C682        H688   1.084       .  S
C689        C691   1.549       .  S
C689        C693   1.546       .  S
C689        C692   1.536       .  S
C689       C1337   1.526       .  S
C690        C694   1.543       .  S
C690        C696   1.530       .  S
C690        C695   1.540       .  S
C690       C1313   1.527       .  S
C691        C699   1.383       .  A
C692        C703   1.382       .  A
C693        C707   1.382       .  A
C694        C697   1.378       .  A
C695        C701   1.375       .  A
C696        C704   1.375       .  A
C697        H710   1.081       .  S
N698        C699   1.361       .  A
C699        H700   1.081       .  S
C701        H711   1.081       .  S
C701        N702   1.358       .  A
C703        H709   1.082       .  S
C704        H706   1.082       .  S
N705        C707   1.364       .  A
N705       C1353   1.448       .  S
C707        H708   1.080       .  S
C712        C714   1.549       .  S
C712        C716   1.546       .  S
C712        C715   1.537       .  S
C712       C1329   1.529       .  S
C713        C717   1.534       .  S
C713        C719   1.540       .  S
C713        C718   1.540       .  S
C713       C1321   1.528       .  S
C714        C722   1.385       .  A
C714        C717   1.394       .  A
C715        C726   1.378       .  A
C715        C718   1.391       .  A
C716        C730   1.381       .  A
C716        C719   1.392       .  A
C717        C720   1.375       .  A
C718        C724   1.379       .  A
C719        C727   1.377       .  A
C720        H733   1.082       .  S
C720        N721   1.360       .  A
N721        C722   1.360       .  A
N721       C1265   1.445       .  S
C722        H723   1.079       .  S
C724        H734   1.081       .  S
C724        N725   1.357       .  A
N725        C726   1.361       .  A
N725       C1249   1.442       .  S
C726        H732   1.082       .  S
C727        H729   1.081       .  S
C727        N728   1.359       .  A
N728        C730   1.361       .  A
N728       C1281   1.446       .  S
C730        H731   1.080       .  S
C735        C737   1.545       .  S
C735        C739   1.540       .  S
C735        C738   1.527       .  S
C735       C1209   1.529       .  S
C736        C740   1.551       .  S
C736        C742   1.549       .  S
C736        C741   1.532       .  S
C736       C1193   1.532       .  S
C737        C745   1.381       .  A
C738        C749   1.372       .  A
C739        C753   1.375       .  A
C740        C743   1.383       .  A
C741        C747   1.378       .  A
C742        C750   1.384       .  A
C743        H756   1.080       .  S
N744        C745   1.359       .  A
N744       C1225   1.445       .  S
C745        H746   1.081       .  S
C747        H757   1.082       .  S
N748        C749   1.358       .  A
N748       C1169   1.440       .  S
C749        H755   1.082       .  S
C750        H752   1.080       .  S
N751        C753   1.361       .  A
C753        H754   1.078       .  S
C758        C760   1.550       .  S
C758        C762   1.550       .  S
C758        C761   1.535       .  S
C758       C1185   1.532       .  S
C759        C763   1.540       .  S
C759        C765   1.549       .  S
C759        C764   1.533       .  S
C759       C1201   1.529       .  S
C760        C768   1.388       .  A
C760        C763   1.392       .  A
C761        C772   1.380       .  A
C761        C764   1.388       .  A
C762        C776   1.380       .  A
C762        C765   1.399       .  A
C763        C766   1.377       .  A
C764        C770   1.378       .  A
C765        C773   1.387       .  A
C766        H779   1.081       .  S
C766        N767   1.357       .  A
N767        C768   1.364       .  A
N767       C1145   1.449       .  S
C768        H769   1.081       .  S
C770        H780   1.082       .  S
C770        N771   1.361       .  A
N771        C772   1.362       .  A
N771       C1121   1.444       .  S
C772        H778   1.082       .  S
C773        H775   1.081       .  S
C773        N774   1.361       .  A
N774        C776   1.360       .  A
N774       C1153   1.450       .  S
C776        H777   1.079       .  S
C781        C783   1.539       .  S
C781        C785   1.539       .  S
C781        C784   1.545       .  S
C781       C1081   1.529       .  S
C782        C786   1.544       .  S
C782        C788   1.532       .  S
C782        C787   1.543       .  S
C782       C1057   1.532       .  S
C783        C791   1.381       .  A
C784        C795   1.380       .  A
C785        C799   1.380       .  A
C786        C789   1.382       .  A
C787        C793   1.383       .  A
C788        C796   1.374       .  A
C789        H802   1.081       .  S
N790        C791   1.357       .  A
N790       C1089   1.446       .  S
C791        H792   1.082       .  S
C793        H803   1.082       .  S
N794        C795   1.360       .  A
N794       C1177   1.442       .  S
C795        H801   1.081       .  S
C796        H798   1.081       .  S
N797        C799   1.360       .  A
C799        H800   1.082       .  S
C804        C806   1.553       .  S
C804        C808   1.540       .  S
C804        C807   1.542       .  S
C804       C1065   1.531       .  S
C805        C809   1.540       .  S
C805        C811   1.536       .  S
C805        C810   1.547       .  S
C805       C1073   1.531       .  S
C806        C814   1.391       .  A
C806        C809   1.407       .  A
C807        C818   1.378       .  A
C807        C810   1.394       .  A
C808        C822   1.388       .  A
C808        C811   1.385       .  A
C809        C812   1.383       .  A
C810        C816   1.385       .  A
C811        C819   1.374       .  A
C812        H825   1.081       .  S
C812        N813   1.356       .  A
N813        C814   1.360       .  A
N813       C1025   1.452       .  S
C814        H815   1.081       .  S
C816        H826   1.080       .  S
C816        N817   1.360       .  A
N817        C818   1.358       .  A
N817       C1129   1.445       .  S
C818        H824   1.081       .  S
C819        H821   1.081       .  S
C819        N820   1.359       .  A
N820        C822   1.363       .  A
N820       C1049   1.448       .  S
C822        H823   1.082       .  S
C827        C829   1.552       .  S
C827        C831   1.538       .  S
C827        C830   1.540       .  S
C827        C969   1.531       .  S
C828        C832   1.547       .  S
C828        C834   1.526       .  S
C828        C833   1.541       .  S
C828        C977   1.532       .  S
C829        C837   1.393       .  A
C830        C841   1.373       .  A
C831        C845   1.382       .  A
C832        C835   1.381       .  A
C833        C839   1.381       .  A
C834        C842   1.371       .  A
C835        H848   1.080       .  S
C835        N836   1.354       .  A
N836       C1009   1.447       .  S
C837        H838   1.081       .  S
C839        H849   1.081       .  S
C839        N840   1.359       .  A
N840       C1305   1.442       .  S
C841        H847   1.081       .  S
C842        H844   1.081       .  S
C842        N843   1.362       .  A
C845        H846   1.081       .  S
C850        C852   1.532       .  S
C850        C854   1.546       .  S
C850        C853   1.546       .  S
C850        C961   1.527       .  S
C851        C855   1.530       .  S
C851        C857   1.543       .  S
C851        C856   1.545       .  S
C851        C985   1.530       .  S
C852        C860   1.377       .  A
C852        C855   1.385       .  A
C853        C864   1.383       .  A
C853        C856   1.400       .  A
C854        C868   1.379       .  A
C854        C857   1.391       .  A
C855        C858   1.375       .  A
C856        C862   1.376       .  A
C857        C865   1.380       .  A
C858        H871   1.082       .  S
C858        N859   1.362       .  A
N859        C860   1.362       .  A
N859        C937   1.446       .  S
C860        H861   1.082       .  S
C862        H872   1.081       .  S
C862        N863   1.357       .  A
N863        C864   1.361       .  A
N863       C1257   1.442       .  S
C864        H870   1.082       .  S
C865        H867   1.080       .  S
C865        N866   1.363       .  A
N866        C868   1.363       .  A
N866        C953   1.453       .  S
C868        H869   1.080       .  S
O873        V881   1.912   1_465  S
O874        V881   1.908       .  S
O875        V881   1.895   1_455  S
O875        C885   1.264       .  A
O876        V881   1.897   1_565  S
O876        C886   1.264       .  A
O877        V882   1.897   1_665  S
O878        V882   1.899       .  S
O879        V882   1.889   1_655  S
O879        C884   1.262       .  A
O880        V882   1.889   1_565  S
O880        C883   1.263       .  A
C883       C1017   1.480       .  S
C884       C1345   1.480       .  S
C885       C1241   1.476       .  S
C886       C1113   1.479       .  S
O887        V895   1.892       .  S
O887        C897   1.264   1_455  A
O888        V895   1.898   1_565  S
O888        C898   1.265       .  A
O889        V895   1.905       .  S
O889        C899   1.267       .  A
O890        V895   1.911   1_655  S
O890        C900   1.266   1_545  A
O891        V896   1.897   1_655  S
O891        C900   1.265   1_545  A
O892        V896   1.907       .  S
O892        C899   1.266       .  A
O893        V896   1.907   1_565  S
O893        C898   1.266       .  A
O894        V896   1.911   1_655  S
O894        C897   1.267       .  A
V895        V896   2.086       .  T
C897       C1273   1.481       .  S
C898        C945   1.484       .  S
C899       C1161   1.487       .  S
C900       C1041   1.483       .  S
O901        V909   1.907       .  S
O902        V909   1.906       .  S
O903        V909   1.903       .  S
O903        C913   1.265       .  A
O904        V909   1.901       .  S
O904        C914   1.264       .  A
O905        V910   1.905       .  S
O906        V910   1.904       .  S
O907        V910   1.900       .  S
O907        C912   1.265   1_556  A
O908        V910   1.900       .  S
O908        C911   1.265   1_556  A
C911       C1369   1.482       .  S
C912       C1001   1.481   1_554  S
C913       C1217   1.479       .  S
C914       C1097   1.479       .  S
O915        V923   1.907       .  S
O915        C925   1.266       .  A
O916        V923   1.906       .  S
O916        C926   1.267       .  A
O917        V923   1.907       .  S
O917        C927   1.266       .  A
O918        V923   1.904       .  S
O918        C928   1.265       .  A
O919        V924   1.910       .  S
O919        C928   1.268       .  A
O920        V924   1.909       .  S
O920        C927   1.267       .  A
O921        V924   1.895       .  S
O921        C926   1.263       .  A
O922        V924   1.894       .  S
O922        C925   1.264       .  A
V923        V924   2.084       .  T
C925        C929   1.480       .  S
C926       C1289   1.479       .  S
C927       C1033   1.489       .  S
C928       C1137   1.486       .  S
C929        C930   1.406       .  A
C929        C934   1.407       .  A
C930        C931   1.395       .  A
C930        H939   1.083       .  S
C931        C932   1.400       .  A
C931        H940   1.084       .  S
C932        C938   1.402       .  A
C932        C933   1.413       .  A
C933        C935   1.402       .  A
C933        C934   1.407       .  A
C934        H941   1.084       .  S
C935        C936   1.400       .  A
C935        H942   1.084       .  S
C936        C937   1.409       .  A
C936        H943   1.081       .  S
C937        C938   1.407       .  A
C938        H944   1.082       .  S
C945        C946   1.406       .  A
C945        C950   1.409       .  A
C946        C947   1.396       .  A
C946        H955   1.083       .  S
C947        C948   1.401       .  A
C947        H956   1.084       .  S
C948        C954   1.404       .  A
C948        C949   1.412       .  A
C949        C951   1.402       .  A
C949        C950   1.408       .  A
C950        H957   1.084       .  S
C951        C952   1.400       .  A
C951        H958   1.084       .  S
C952        C953   1.411       .  A
C952        H959   1.080       .  S
C953        C954   1.411       .  A
C954        H960   1.081       .  S
C961        C962   1.410       .  A
C961        C966   1.411       .  A
C962        C963   1.394       .  A
C962        H971   1.081       .  S
C963        C964   1.398       .  A
C963        H972   1.084       .  S
C964        C970   1.404       .  A
C964        C965   1.412       .  A
C965        C967   1.402       .  A
C965        C966   1.409       .  A
C966        H973   1.082       .  S
C967        C968   1.400       .  A
C967        H974   1.083       .  S
C968        C969   1.409       .  A
C968        H975   1.082       .  S
C969        C970   1.408       .  A
C970        H976   1.081       .  S
C977        C978   1.410       .  A
C977        C982   1.411       .  A
C978        C979   1.397       .  A
C978        H987   1.081       .  S
C979        C980   1.400       .  A
C979        H988   1.083       .  S
C980        C986   1.404       .  A
C980        C981   1.410       .  A
C981        C983   1.402       .  A
C981        C982   1.407       .  A
C982        H989   1.082       .  S
C983        C984   1.400       .  A
C983        H990   1.083       .  S
C984        C985   1.409       .  A
C984        H991   1.080       .  S
C985        C986   1.409       .  A
C986        H992   1.082       .  S
C994        C995   1.397       .  A
C994       H1003   1.080       .  S
C995        C996   1.399       .  A
C995       H1004   1.084       .  S
C996       C1002   1.406       .  A
C996        C997   1.413       .  A
C997        C999   1.402       .  A
C997        C998   1.407       .  A
C999       C1000   1.399       .  A
C999       H1006   1.084       .  S
C1000      H1007   1.083       .  S
C1002      H1008   1.084       .  S
C1009      C1010   1.407       .  A
C1010      C1011   1.393       .  A
C1010      H1019   1.080       .  S
C1011      C1012   1.399       .  A
C1011      H1020   1.084       .  S
C1012      C1018   1.400       .  A
C1012      C1013   1.412       .  A
C1014      H1021   1.083       .  S
C1015      C1016   1.403       .  A
C1015      H1022   1.083       .  S
C1016      H1023   1.083       .  S
C1017      C1018   1.405       .  A
C1018      H1024   1.084       .  S
C1025      C1026   1.407       .  A
C1025      C1030   1.413       .  A
C1026      C1027   1.400       .  A
C1026      H1035   1.082       .  S
C1027      C1028   1.402       .  A
C1027      H1036   1.083       .  S
C1028      C1034   1.409       .  A
C1028      C1029   1.413       .  A
C1029      C1031   1.405       .  A
C1029      C1030   1.412       .  A
C1030      H1037   1.082       .  S
C1031      C1032   1.402       .  A
C1031      H1038   1.083       .  S
C1032      C1033   1.407       .  A
C1032      H1039   1.083       .  S
C1033      C1034   1.409       .  A
C1034      H1040   1.084       .  S
C1041      C1042   1.407       .  A
C1041      C1046   1.402       .  A
C1042      C1043   1.407       .  A
C1042      H1051   1.083   1_565  S
C1043      C1044   1.408       .  A
C1043      H1052   1.083       .  S
C1044      C1050   1.415       .  A
C1044      C1045   1.414       .  A
C1045      C1047   1.396       .  A
C1045      C1046   1.400       .  A
C1046      H1053   1.085       .  S
C1047      C1048   1.390       .  A
C1047      H1054   1.084       .  S
C1048      C1049   1.407       .  A
C1048      H1055   1.082       .  S
C1049      C1050   1.413       .  A
C1050      H1056   1.083       .  S
C1057      C1058   1.411       .  A
C1057      C1062   1.410       .  A
C1058      C1059   1.397       .  A
C1058      H1067   1.079       .  S
C1059      C1060   1.400       .  A
C1059      H1068   1.084       .  S
C1060      C1066   1.407       .  A
C1060      C1061   1.412       .  A
C1061      C1063   1.400       .  A
C1061      C1062   1.407       .  A
C1062      H1069   1.083       .  S
C1063      C1064   1.397       .  A
C1063      H1070   1.083       .  S
C1064      C1065   1.410       .  A
C1064      H1071   1.083       .  S
C1065      C1066   1.409       .  A
C1066      H1072   1.080       .  S
C1073      C1074   1.410       .  A
C1073      C1078   1.409       .  A
C1074      C1075   1.397       .  A
C1074      H1083   1.082       .  S
C1075      C1076   1.400       .  A
C1075      H1084   1.084       .  S
C1076      C1082   1.405       .  A
C1076      C1077   1.410       .  A
C1077      C1079   1.400       .  A
C1077      C1078   1.405       .  A
C1078      H1085   1.079       .  S
C1079      C1080   1.398       .  A
C1079      H1086   1.083       .  S
C1080      C1081   1.409       .  A
C1080      H1087   1.080       .  S
C1081      C1082   1.410       .  A
C1082      H1088   1.082       .  S
C1089      C1090   1.408       .  A
C1090      C1091   1.400       .  A
C1090      H1099   1.081       .  S
C1091      C1092   1.403       .  A
C1091      H1100   1.083       .  S
C1092      C1098   1.407       .  A
C1093      C1095   1.402       .  A
C1093      C1094   1.403       .  A
C1094      H1101   1.083       .  S
C1095      C1096   1.398       .  A
C1095      H1102   1.084       .  S
C1096      H1103   1.083       .  S
C1097      C1098   1.408       .  A
C1098      H1104   1.084       .  S
C1105      C1110   1.410   1_554  A
C1106      C1107   1.396       .  A
C1106      H1115   1.082       .  S
C1107      C1108   1.401       .  A
C1107      H1116   1.084       .  S
C1108      C1114   1.402       .  A
C1109      C1111   1.402       .  A
C1109      C1110   1.404       .  A
C1110      H1117   1.081       .  S
C1111      C1112   1.397       .  A
C1111      H1118   1.083       .  S
C1112      C1113   1.406       .  A
C1112      H1119   1.083       .  S
C1114      H1120   1.084       .  S
C1121      C1122   1.406       .  A
C1121      C1126   1.408       .  A
C1122      C1123   1.399       .  A
C1122      H1131   1.082       .  S
C1123      C1124   1.402   1_545  A
C1123      H1132   1.084       .  S
C1124      C1130   1.407       .  A
C1124      C1125   1.414       .  A
C1125      C1127   1.402       .  A
C1125      C1126   1.407   1_565  A
C1126      H1133   1.083       .  S
C1127      C1128   1.398       .  A
C1127      H1134   1.084       .  S
C1128      C1129   1.407       .  A
C1128      H1135   1.082       .  S
C1129      C1130   1.409       .  A
C1130      H1136   1.083       .  S
C1137      C1138   1.405       .  A
C1137      C1142   1.410       .  A
C1138      C1139   1.398       .  A
C1138      H1147   1.083       .  S
C1139      C1140   1.403       .  A
C1139      H1148   1.084       .  S
C1140      C1146   1.405       .  A
C1140      C1141   1.412       .  A
C1141      C1143   1.405       .  A
C1141      C1142   1.410       .  A
C1142      H1149   1.084       .  S
C1143      C1144   1.403       .  A
C1143      H1150   1.083       .  S
C1144      C1145   1.407       .  A
C1144      H1151   1.082       .  S
C1145      C1146   1.411       .  A
C1146      H1152   1.082       .  S
C1153      C1154   1.409       .  A
C1153      C1158   1.412       .  A
C1154      C1155   1.396       .  A
C1154      H1163   1.081       .  S
C1155      C1156   1.400       .  A
C1155      H1164   1.084       .  S
C1156      C1162   1.406       .  A
C1156      C1157   1.413       .  A
C1157      C1159   1.405       .  A
C1157      C1158   1.411       .  A
C1158      H1165   1.083       .  S
C1159      C1160   1.403       .  A
C1159      H1166   1.084       .  S
C1160      C1161   1.407       .  A
C1160      H1167   1.083       .  S
C1161      C1162   1.406       .  A
C1162      H1168   1.084       .  S
C1169      C1170   1.407       .  A
C1170      C1171   1.395       .  A
C1170      H1179   1.082       .  S
C1171      C1172   1.400   1_545  A
C1171      H1180   1.084       .  S
C1172      C1178   1.403       .  A
C1173      C1175   1.404       .  A
C1173      C1174   1.406   1_565  A
C1174      H1181   1.084       .  S
C1175      C1176   1.400       .  A
C1175      H1182   1.084       .  S
C1176      H1183   1.082       .  S
C1177      C1178   1.406       .  A
C1178      H1184   1.083       .  S
C1185      C1186   1.409       .  A
C1185      C1190   1.411       .  A
C1186      C1187   1.399       .  A
C1186      H1195   1.081       .  S
C1187      C1188   1.401       .  A
C1187      H1196   1.084       .  S
C1188      C1194   1.405       .  A
C1188      C1189   1.410       .  A
C1189      C1191   1.401       .  A
C1189      C1190   1.406       .  A
C1190      H1197   1.080       .  S
C1191      C1192   1.399       .  A
C1191      H1198   1.084       .  S
C1192      C1193   1.409       .  A
C1192      H1199   1.080       .  S
C1193      C1194   1.411       .  A
C1194      H1200   1.080       .  S
C1201      C1202   1.411       .  A
C1201      C1206   1.407       .  A
C1202      C1203   1.396       .  A
C1202      H1211   1.081       .  S
C1203      C1204   1.399       .  A
C1203      H1212   1.085       .  S
C1204      C1210   1.406       .  A
C1204      C1205   1.412       .  A
C1205      C1207   1.398       .  A
C1205      C1206   1.405       .  A
C1206      H1213   1.082       .  S
C1207      C1208   1.396       .  A
C1207      H1214   1.085       .  S
C1208      C1209   1.411       .  A
C1208      H1215   1.081       .  S
C1209      C1210   1.408       .  A
C1210      H1216   1.082       .  S
C1217      C1218   1.404       .  A
C1218      C1219   1.397       .  A
C1218      H1227   1.083       .  S
C1219      C1220   1.402       .  A
C1219      H1228   1.084       .  S
C1220      C1226   1.404       .  A
C1220      C1221   1.413       .  A
C1222      H1229   1.085       .  S
C1223      C1224   1.400       .  A
C1223      H1230   1.084       .  S
C1224      H1231   1.081       .  S
C1225      C1226   1.407       .  A
C1226      H1232   1.084       .  S
C1234      C1235   1.396       .  A
C1234      H1243   1.079       .  S
C1235      C1236   1.398       .  A
C1235      H1244   1.084       .  S
C1236      C1242   1.403       .  A
C1236      C1237   1.412       .  A
C1237      C1239   1.403       .  A
C1237      C1238   1.404       .  A
C1239      H1246   1.084       .  S
C1240      C1241   1.406       .  A
C1240      H1247   1.083       .  S
C1242      H1248   1.084       .  S
C1249      C1250   1.405       .  A
C1249      C1254   1.410       .  A
C1250      C1251   1.398       .  A
C1250      H1259   1.082       .  S
C1251      C1252   1.403       .  A
C1251      H1260   1.083       .  S
C1252      C1258   1.403   1_655  A
C1252      C1253   1.412       .  A
C1253      C1255   1.404   1_655  A
C1253      C1254   1.404       .  A
C1254      H1261   1.083       .  S
C1255      C1256   1.400       .  A
C1255      H1262   1.083       .  S
C1256      C1257   1.405       .  A
C1256      H1263   1.083       .  S
C1257      C1258   1.408       .  A
C1258      H1264   1.083       .  S
C1265      C1266   1.409       .  A
C1265      C1270   1.405       .  A
C1266      C1267   1.402       .  A
C1266      H1275   1.082       .  S
C1267      C1268   1.404       .  A
C1267      H1276   1.083       .  S
C1268      C1274   1.410       .  A
C1268      C1269   1.414       .  A
C1269      C1271   1.399       .  A
C1269      C1270   1.402       .  A
C1270      H1277   1.083       .  S
C1271      C1272   1.393       .  A
C1271      H1278   1.084       .  S
C1272      C1273   1.405       .  A
C1272      H1279   1.083       .  S
C1273      C1274   1.409       .  A
C1274      H1280   1.084       .  S
C1281      C1282   1.409       .  A
C1281      C1286   1.409       .  A
C1282      C1283   1.397       .  A
C1282      H1291   1.081       .  S
C1283      C1284   1.400       .  A
C1283      H1292   1.084       .  S
C1284      C1290   1.405       .  A
C1284      C1285   1.413       .  A
C1285      C1287   1.401       .  A
C1285      C1286   1.404       .  A
C1286      H1293   1.082       .  S
C1287      C1288   1.397       .  A
C1287      H1294   1.084       .  S
C1288      C1289   1.406       .  A
C1288      H1295   1.083       .  S
C1289      C1290   1.405       .  A
C1290      H1296   1.084       .  S
C1297      C1302   1.406       .  A
C1298      C1299   1.390   1_655  A
C1298      H1307   1.082       .  S
C1299      C1300   1.397       .  A
C1299      H1308   1.084       .  S
C1300      C1306   1.397       .  A
C1300      C1301   1.414   1_456  A
C1302      H1309   1.084       .  S
C1303      C1304   1.401   1_655  A
C1303      H1310   1.084       .  S
C1304      C1305   1.407       .  A
C1304      H1311   1.082       .  S
C1306      H1312   1.083       .  S
C1313      C1314   1.410       .  A
C1313      C1318   1.410       .  A
C1314      C1315   1.395       .  A
C1314      H1323   1.078       .  S
C1315      C1316   1.398       .  A
C1315      H1324   1.084       .  S
C1316      C1322   1.402       .  A
C1316      C1317   1.410       .  A
C1317      C1319   1.400       .  A
C1317      C1318   1.404       .  A
C1318      H1325   1.081       .  S
C1319      C1320   1.397       .  A
C1319      H1326   1.083       .  S
C1320      C1321   1.409       .  A
C1320      H1327   1.081       .  S
C1321      C1322   1.407       .  A
C1322      H1328   1.081       .  S
C1329      C1330   1.410       .  A
C1329      C1334   1.407       .  A
C1330      C1331   1.398       .  A
C1330      H1339   1.081       .  S
C1331      C1332   1.400       .  A
C1331      H1340   1.084       .  S
C1332      C1338   1.405       .  A
C1332      C1333   1.410       .  A
C1333      C1335   1.399       .  A
C1333      C1334   1.402       .  A
C1334      H1341   1.078       .  S
C1335      C1336   1.395       .  A
C1335      H1342   1.084       .  S
C1336      C1337   1.410       .  A
C1336      H1343   1.080       .  S
C1337      C1338   1.410       .  A
C1338      H1344   1.081       .  S
C1345      C1346   1.407       .  A
C1346      C1347   1.395       .  A
C1346      H1355   1.083       .  S
C1347      C1348   1.400       .  A
C1347      H1356   1.084       .  S
C1348      C1354   1.403       .  A
C1348      C1349   1.413       .  A
C1350      H1357   1.084       .  S
C1351      C1352   1.399       .  A
C1351      H1358   1.084       .  S
C1352      H1359   1.081       .  S
C1353      C1354   1.408       .  A
C1354      H1360   1.082       .  S
C1361      C1362   1.408       .  A
C1362      C1363   1.398       .  A
C1362      H1371   1.082       .  S
C1363      C1364   1.402       .  A
C1363      H1372   1.084       .  S
C1364      C1370   1.406       .  A
C1365      C1367   1.404       .  A
C1365      C1366   1.409       .  A
C1366      H1373   1.083       .  S
C1367      C1368   1.401       .  A
C1367      H1374   1.084       .  S
C1368      H1375   1.083       .  S
C1369      C1370   1.407   1_554  A
C1370      H1376   1.084       .  S
