geometry optimzed in LAMMPS
_audit_creation_date              2020-12-01 
_audit_creation_method            'lammps2cif' 
_symmetry_space_group_name_H-M    'P1' 
_symmetry_Int_Tables_number       1 
_symmetry_cell_setting            triclinic 
loop_ 
_symmetry_equiv_pos_as_xyz 
  x,y,z 
_cell_length_a                    62.28474177 
_cell_length_b                    62.482586846121805 
_cell_length_c                    62.52352886848171 
_cell_angle_alpha                 89.83878306894056 
_cell_angle_beta                  90.14875757702502 
_cell_angle_gamma                 89.88361103124309 
loop_ 
_atom_site_label 
_atom_site_type_symbol 
_atom_site_fract_x 
_atom_site_fract_y 
_atom_site_fract_z 
_atom_site_charge 
O1          O  0.66641482  0.12489894  0.51576744    -0.85600
O2          O  0.69719370  0.14912387  0.49778524    -0.82700
C3          C  0.71121182  0.14575723  0.51177641     0.97800
O4          O  0.71930957  0.12753013  0.51438267    -0.82700
O5          O  0.72968688  0.08498820  0.51026720    -0.85300
C6          C  0.71871926  0.07316475  0.52241485     1.02400
O7          O  0.69844727  0.07240285  0.52042100    -0.78100
O8          O  0.65858750  0.09066565  0.51361651    -0.78300
C9          C  0.65824248  0.10842817  0.52392270     1.02300
O10         O  0.65175920  0.11252038  0.47456497    -0.85600
O11         O  0.68682768  0.13295450  0.45733512    -0.82700
C12         C  0.70607974  0.13850577  0.45529422     0.97900
O13         O  0.72049608  0.13235133  0.46836199    -0.82700
O14         O  0.72742130  0.08903110  0.46558476    -0.85300
C15         C  0.72077188  0.07003881  0.46486498     1.02300
O16         O  0.70457368  0.06399292  0.47568579    -0.78100
O17         O  0.66646092  0.08307580  0.46501945    -0.78300
C18         C  0.65505886  0.09911889  0.46009102     1.02300
Cr19       Cr  0.67671528  0.12787566  0.48657498     1.93700
Cr20       Cr  0.72197709  0.10838596  0.48972252     1.93200
Cr21       Cr  0.68222838  0.07936463  0.49333801     1.39100
O22         O  0.69382258  0.10489364  0.48985053    -1.23400
O23         O  0.05917537  0.54581763  0.66696612    -0.85600
O24         O  0.07982848  0.56492037  0.70000871    -0.82700
C25         C  0.08403072  0.56967907  0.71898115     0.97800
O26         O  0.07624473  0.55930926  0.73448796    -0.82700
O27         O  0.03367522  0.56648276  0.73426463    -0.85300
C28         C  0.01417551  0.56477159  0.72991160     1.02400
O29         O  0.00762927  0.55018648  0.71731563    -0.78100
O30         O  0.02901089  0.55766903  0.67887798    -0.78300
C31         C  0.04607154  0.56114047  0.66840014     1.02300
O32         O  0.06937958  0.50491298  0.68599760    -0.85600
O33         O  0.09212043  0.52451352  0.71677751    -0.82700
C34         C  0.08717806  0.51480317  0.73375504     0.97900
O35         O  0.06846053  0.51515165  0.74116542    -0.82700
O36         O  0.02531854  0.52259647  0.74536451    -0.85300
C37         C  0.01693411  0.50694790  0.73569316     1.02300
O38         O  0.01846973  0.50543143  0.71552229    -0.78100
O39         O  0.03602894  0.50872252  0.67527878    -0.78300
C40         C  0.05315241  0.49734798  0.67685578     1.02300
Cr41       Cr  0.07331450  0.53501491  0.69339150     1.93700
Cr42       Cr  0.05080608  0.54046881  0.73675519     1.93200
Cr43       Cr  0.02438179  0.53088286  0.69691960     1.39100
O44         O  0.04948424  0.53518918  0.70912535    -1.23400
O45         O  0.49404271  0.70304207  0.08202587    -0.85600
O46         O  0.51379102  0.73580097  0.10211038    -0.82700
C47         C  0.51809210  0.75463370  0.10721903     0.97800
O48         O  0.50638426  0.77023179  0.10130512    -0.82700
O49         O  0.50926515  0.77518274  0.05798289    -0.85300
C50         C  0.50756177  0.76980211  0.03870574     1.02400
O51         O  0.49407231  0.75554185  0.03300071    -0.78100
O52         O  0.50274296  0.71665447  0.05161229    -0.78300
C53         C  0.50793373  0.70529024  0.06754361     1.02300
O54         O  0.45322669  0.72069253  0.09592870    -0.85600
O55         O  0.47414759  0.75052819  0.11926899    -0.82700
C56         C  0.46208721  0.76641648  0.11593799     0.97900
O57         O  0.46058712  0.77476696  0.09767194    -0.82700
O58         O  0.46469959  0.78272559  0.05426240    -0.85300
C59         C  0.44994138  0.77253921  0.04490304     1.02300
O60         O  0.44943769  0.75231922  0.04559702    -0.78100
O61         O  0.45434067  0.71197539  0.06201897    -0.78300
C62         C  0.44418969  0.71264259  0.07988321     1.02300
Cr63       Cr  0.48358620  0.72861993  0.09796321     1.93700
Cr64       Cr  0.48490219  0.77355179  0.07773738     1.93200
Cr65       Cr  0.47561494  0.73435277  0.04978523     1.39100
O66         O  0.48137085  0.74562899  0.07498378    -1.23400
O67         O  0.07559440  0.72323467  0.46494309    -0.85600
O68         O  0.10056941  0.75316610  0.48298483    -0.82700
C69         C  0.09702175  0.76718265  0.46891437     0.97800
O70         O  0.07916073  0.77669738  0.46793624    -0.82700
O71         O  0.03649367  0.78748349  0.47430838    -0.85300
C72         C  0.02571957  0.77703708  0.46084568     1.02400
O73         O  0.02560030  0.75680211  0.46134568    -0.78100
O74         O  0.04112417  0.71626477  0.46713217    -0.78300
C75         C  0.05881007  0.71577362  0.45666699     1.02300
O76         O  0.06275177  0.70812220  0.50609989    -0.85600
O77         O  0.08428288  0.74183290  0.52386605    -0.82700
C78         C  0.08962540  0.76093198  0.52681873     0.97900
O79         O  0.08517933  0.77548558  0.51343208    -0.82700
O80         O  0.04256395  0.78130884  0.51896640    -0.85300
C81         C  0.02318445  0.77574648  0.51927845     1.02300
O82         O  0.01585247  0.76208736  0.50608576    -0.78100
O83         O  0.03322183  0.72320403  0.51536630    -0.78300
C84         C  0.04902848  0.71155562  0.52035510     1.02300
Cr85       Cr  0.07905622  0.73270970  0.49437049     1.93700
Cr86       Cr  0.06065887  0.77818383  0.49339649     1.93200
Cr87       Cr  0.03067646  0.73976995  0.48778853     1.39100
O88         O  0.05658219  0.75031523  0.49177863    -1.23400
O89         O  0.45932262  0.11369794  0.66747410    -0.85600
O90         O  0.43984579  0.13411271  0.70049985    -0.82700
C91         C  0.43603108  0.13933195  0.71939802     0.97800
O92         O  0.44807213  0.13363471  0.73475361    -0.82700
O93         O  0.44410949  0.09047010  0.74024755    -0.85300
C94         C  0.44507263  0.07113488  0.73475158     1.02400
O95         O  0.45805623  0.06507854  0.72020944    -0.78100
O96         O  0.44924752  0.08396314  0.68149770    -0.78300
C97         C  0.44478221  0.09998300  0.66995945     1.02300
O98         O  0.49992978  0.12708813  0.68436998    -0.85600
O99         O  0.47996423  0.15099499  0.71445951    -0.82700
C100        C  0.49306863  0.14724218  0.72938948     0.97900
O101        O  0.49383515  0.12908441  0.73816374    -0.82700
O102        O  0.48853914  0.08604224  0.74692414    -0.85300
C103        C  0.50282062  0.07621483  0.73662932     1.02300
O104        O  0.50293178  0.07644786  0.71638612    -0.78100
O105        O  0.49770152  0.09301292  0.67601162    -0.78300
C106        C  0.50815569  0.11073551  0.67609439     1.02300
Cr107      Cr  0.46986324  0.12966090  0.69285131     1.93700
Cr108      Cr  0.46891501  0.10975687  0.73787744     1.93200
Cr109      Cr  0.47660168  0.08131634  0.69874437     1.39100
O110        O  0.47183739  0.10670672  0.70996160    -1.23400
O111        O  0.66224980  0.49964199  0.08210211    -0.85600
O112        O  0.69516326  0.50837935  0.10700723    -0.82700
C113        C  0.70779339  0.49379764  0.10091352     0.97800
O114        O  0.71705452  0.49508133  0.08304950    -0.82700
O115        O  0.72936615  0.50759438  0.04298230    -0.85300
C116        C  0.71851332  0.49576698  0.03104849     1.02400
O117        O  0.69822121  0.49718629  0.03086004    -0.78100
O118        O  0.65816121  0.50405631  0.04743643    -0.78300
C119        C  0.65595201  0.49273445  0.06441735     1.02300
O120        O  0.65366720  0.54419874  0.07505080    -0.85600
O121        O  0.69006629  0.55329650  0.09775695    -0.82700
C122        C  0.70897986  0.55163367  0.10446973     0.97900
O123        O  0.72161449  0.53786490  0.09697760    -0.82700
O124        O  0.72724756  0.55042544  0.05465859    -0.85300
C125        C  0.72221592  0.55280978  0.03517345     1.02300
O126        O  0.70688873  0.54222958  0.02679992    -0.78100
O127        O  0.66823248  0.55276501  0.04484515    -0.78300
C128        C  0.65760503  0.55824772  0.06121156     1.02300
Cr129      Cr  0.67647665  0.52647266  0.08847140     1.93700
Cr130      Cr  0.72156084  0.52289633  0.06929434     1.93200
Cr131      Cr  0.68292504  0.52423465  0.03934951     1.39100
O132        O  0.69356605  0.52461585  0.06546876    -1.23400
O133        O  0.57123073  0.83383412  0.01828608    -0.85600
O134        O  0.59547322  0.80387226  0.99899916    -0.82700
C135        C  0.59223162  0.78928605  0.01251817     0.97800
O136        O  0.57409220  0.78053879  0.01406869    -0.82700
O137        O  0.53081359  0.77095632  0.00885295    -0.85300
C138        C  0.52041048  0.78141585  0.02257577     1.02400
O139        O  0.52034637  0.80170306  0.02217981    -0.78100
O140        O  0.53698843  0.84197203  0.01640684    -0.78300
C141        C  0.55469900  0.84143745  0.02688367     1.02300
O142        O  0.55793147  0.85031152  0.97732298    -0.85600
O143        O  0.57834721  0.81670339  0.95884649    -0.82700
C144        C  0.58358288  0.79767649  0.95547196     0.97900
O145        O  0.57841105  0.78268310  0.96816693    -0.82700
O146        O  0.53524198  0.77694424  0.96452448    -0.85300
C147        C  0.51599026  0.78304782  0.96486817     1.02300
O148        O  0.50971104  0.79768454  0.97748820    -0.78100
O149        O  0.52802697  0.83600339  0.96811588    -0.78300
C150        C  0.54395587  0.84743284  0.96308082     1.02300
Cr151      Cr  0.57389956  0.82507174  0.98855491     1.93700
Cr152      Cr  0.55455254  0.77993251  0.98916432     1.93200
Cr153      Cr  0.52550792  0.81913288  0.99570287     1.39100
O154        O  0.55107214  0.80790625  0.99115537    -1.23400
O155        O  0.78433144  0.42996396  0.01486359    -0.85600
O156        O  0.75342444  0.40728258  0.99644633    -0.82700
C157        C  0.73965655  0.41206393  0.01031255     0.97800
O158        O  0.72992637  0.42975206  0.00980763    -0.82700
O159        O  0.72051402  0.47198770  0.00187347    -0.85300
C160        C  0.73040896  0.48173086  0.01640256     1.02400
O161        O  0.75069785  0.48079854  0.01751252    -0.78100
O162        O  0.79148074  0.46429545  0.01417071    -0.78300
C163        C  0.79170308  0.44619355  0.02406638     1.02300
O164        O  0.80020211  0.44265821  0.97378471    -0.85600
O165        O  0.76615475  0.42172375  0.95538098    -0.82700
C166        C  0.74702359  0.41610607  0.95261502     0.97900
O167        O  0.73226469  0.42234507  0.96489801    -0.82700
O168        O  0.72894171  0.46539664  0.95799943    -0.85300
C169        C  0.73419886  0.48482501  0.95885781     1.02300
O170        O  0.74772273  0.49143910  0.97272323    -0.78100
O171        O  0.78684872  0.47319745  0.96513146    -0.78300
C172        C  0.79722175  0.45670130  0.95970820     1.02300
Cr173      Cr  0.77498615  0.42726613  0.98510239     1.93700
Cr174      Cr  0.73003109  0.44744259  0.98390359     1.93200
Cr175      Cr  0.76912213  0.47573450  0.99201980     1.39100
O176        O  0.75804477  0.45034260  0.98701519    -1.23400
O177        O  0.38032765  0.05267999  0.79949452    -0.85600
O178        O  0.35677423  0.03418857  0.76878779    -0.82700
C179        C  0.36119428  0.04761511  0.75438975     0.97800
O180        O  0.37933767  0.04766851  0.74552749    -0.82700
O181        O  0.42228093  0.04080669  0.73642037    -0.85300
C182        C  0.43199657  0.05527288  0.74654384     1.02400
O183        O  0.43132642  0.05568692  0.76676492    -0.78100
O184        O  0.41471048  0.05117210  0.80700045    -0.78300
C185        C  0.39685158  0.06149666  0.80680973     1.02300
O186        O  0.39285889  0.01098086  0.81585884    -0.85600
O187        O  0.37231272  0.99322291  0.78208205    -0.82700
C188        C  0.36676526  0.99011287  0.76311299     0.97900
O189        O  0.37280366  0.00232879  0.74809883    -0.82700
O190        O  0.41622756  0.99672630  0.74353984    -0.85300
C191        C  0.43560336  0.99723946  0.74930987     1.02300
O192        O  0.44196950  0.01038479  0.76358744    -0.78100
O193        O  0.42357413  0.00263139  0.80237681    -0.78300
C194        C  0.40756203  0.99731382  0.81356115     1.02300
Cr195      Cr  0.37751917  0.02286533  0.79043187     1.93700
Cr196      Cr  0.39769584  0.02212934  0.74555997     1.93200
Cr197      Cr  0.42616352  0.02959173  0.78472629     1.39100
O198        O  0.40067763  0.02477371  0.77354133    -1.23400
O199        O  0.99380089  0.61784124  0.81090954    -0.85600
O200        O  0.00640959  0.63952013  0.77563498    -0.82700
C201        C  0.00719590  0.64518915  0.75646890     0.97800
O202        O  0.99226092  0.64081756  0.74341910    -0.82700
O203        O  0.99827656  0.59813981  0.73646465    -0.85300
C204        C  0.99924073  0.57862049  0.74138363     1.02400
O205        O  0.98825371  0.57095046  0.75674157    -0.78100
O206        O  0.00109230  0.58816664  0.79501225    -0.78300
C207        C  0.00741840  0.60365379  0.80637966     1.02300
O208        O  0.95019598  0.62968498  0.80060931    -0.85600
O209        O  0.96348855  0.65488378  0.76877232    -0.82700
C210        C  0.94820779  0.65078652  0.75613390     0.97900
O211        O  0.94697113  0.63283233  0.74710518    -0.82700
O212        O  0.95373922  0.59066273  0.73493661    -0.85300
C213        C  0.94215652  0.57849356  0.74615995     1.02300
O214        O  0.94397969  0.57865681  0.76632989    -0.78100
O215        O  0.95286002  0.59501368  0.80603239    -0.78300
C216        C  0.94228990  0.61261460  0.80758684     1.02300
Cr217      Cr  0.97824081  0.63360778  0.78780241     1.93700
Cr218      Cr  0.97275670  0.61550069  0.74259560     1.93200
Cr219      Cr  0.97186070  0.58505666  0.78095660     1.39100
O220        O  0.97423031  0.61113353  0.77041101    -1.23400
O221        O  0.00589076  0.84189706  0.39334232    -0.85600
O222        O  0.99398115  0.80972339  0.36858212    -0.82700
C223        C  0.00906793  0.79724431  0.37362888     0.97800
O224        O  0.00930289  0.78824523  0.39173620    -0.82700
O225        O  0.00023986  0.77709354  0.43340576    -0.85300
C226        C  0.01160499  0.78832459  0.44557309     1.02400
O227        O  0.00961032  0.80848333  0.44567809    -0.78100
O228        O  0.00232044  0.84779446  0.42775359    -0.78300
C229        C  0.01340135  0.84907454  0.41049849     1.02300
O230        O  0.96209635  0.85241924  0.40232303    -0.85600
O231        O  0.95027787  0.81599248  0.38088006    -0.82700
C232        C  0.95096026  0.79695316  0.37458270     0.97900
O233        O  0.96484571  0.78398492  0.38166425    -0.82700
O234        O  0.95619373  0.77801169  0.42475844    -0.85300
C235        C  0.95409833  0.78387074  0.44399630     1.02300
O236        O  0.96464507  0.79970899  0.45134361    -0.78100
O237        O  0.95331445  0.83742782  0.43204451    -0.78300
C238        C  0.94779104  0.84816934  0.41573197     1.02300
Cr239      Cr  0.97809565  0.82884361  0.38831483     1.93700
Cr240      Cr  0.98255863  0.78403674  0.40800329     1.93200
Cr241      Cr  0.98222850  0.82325084  0.43731288     1.39100
O242        O  0.98096908  0.81199604  0.41147993    -1.23400
O243        O  0.78695463  0.05490339  0.58664734    -0.85600
O244        O  0.75652368  0.04161310  0.61356451    -0.82700
C245        C  0.74259363  0.05568946  0.60937519     0.97800
O246        O  0.73278205  0.05573053  0.59170027    -0.82700
O247        O  0.71971709  0.04684137  0.55017356    -0.85300
C248        C  0.73024508  0.05890178  0.53781018     1.02400
O249        O  0.75053741  0.05759662  0.53733931    -0.78100
O250        O  0.79148339  0.05045616  0.55210347    -0.78300
C251        C  0.79368979  0.06178782  0.56907004     1.02300
O252        O  0.79818209  0.01153775  0.57646393    -0.85600
O253        O  0.76441429  0.99854301  0.60076664    -0.82700
C254        C  0.74564146  0.99764649  0.60779636     0.97900
O255        O  0.73143442  0.01102071  0.60202883    -0.82700
O256        O  0.72353928  0.00239300  0.55944804    -0.85300
C257        C  0.72794386  0.00087802  0.53982620     1.02300
O258        O  0.74221969  0.01270434  0.53132348    -0.78100
O259        O  0.78148579  0.00189101  0.54788553    -0.78300
C260        C  0.79353112  0.99693885  0.56344370     1.02300
Cr261      Cr  0.77525076  0.02670886  0.59249902     1.93700
Cr262      Cr  0.72897857  0.02906621  0.57559147     1.93200
Cr263      Cr  0.76637276  0.03044644  0.54402779     1.39100
O264        O  0.75680335  0.02879150  0.57051081    -1.23400
O265        O  0.37881192  0.83285572  0.97507660    -0.85600
O266        O  0.35533181  0.80186672  0.99343350    -0.82700
C267        C  0.36020540  0.78725430  0.98047632     0.97800
O268        O  0.37852926  0.77875943  0.98071598    -0.82700
O269        O  0.42147716  0.77095781  0.98839520    -0.85300
C270        C  0.43071107  0.78130877  0.97380087     1.02400
O271        O  0.42984949  0.80159411  0.97345123    -0.78100
O272        O  0.41259206  0.84207997  0.97782036    -0.78300
C273        C  0.39506358  0.84146906  0.96697736     1.02300
O274        O  0.38993328  0.84974407  0.01646914    -0.85600
O275        O  0.36944912  0.81570070  0.03450258    -0.82700
C276        C  0.36439357  0.79659488  0.03782840     0.97900
O277        O  0.37125105  0.78162305  0.02603531    -0.82700
O278        O  0.41474820  0.77822456  0.03225369    -0.85300
C279        C  0.43405845  0.78412917  0.03170596     1.02300
O280        O  0.44022963  0.79852822  0.01860187    -0.78100
O281        O  0.42057985  0.83701308  0.02637216    -0.78300
C282        C  0.40408008  0.84794468  0.03078559     1.02300
Cr283      Cr  0.37530217  0.82397976  0.00485107     1.93700
Cr284      Cr  0.39651228  0.77958487  0.00661197     1.93200
Cr285      Cr  0.42411389  0.81951069  0.99940079     1.39100
O286        O  0.39885130  0.80763981  0.00372719    -1.23400
O287        O  0.78412853  0.62327787  0.96695789    -0.85600
O288        O  0.75253732  0.64583291  0.98428512    -0.82700
C289        C  0.73704271  0.64162442  0.97205675     0.97800
O290        O  0.72908329  0.62320538  0.97095155    -0.82700
O291        O  0.72144908  0.58055625  0.97784976    -0.85300
C292        C  0.73191731  0.57106628  0.96349282     1.02400
O293        O  0.75223860  0.57182877  0.96337579    -0.78100
O294        O  0.79237825  0.58917384  0.96818912    -0.78300
C295        C  0.79215574  0.60717875  0.95812705     1.02300
O296        O  0.79968938  0.61119806  0.00864470    -0.85600
O297        O  0.76495954  0.63140622  0.02567937    -0.82700
C298        C  0.74581649  0.63707933  0.02793032     0.97900
O299        O  0.73117377  0.63023683  0.01577099    -0.82700
O300        O  0.72870855  0.58734913  0.02233812    -0.85300
C301        C  0.73407172  0.56799760  0.02168270     1.02300
O302        O  0.74796358  0.56140886  0.00821560    -0.78100
O303        O  0.78650083  0.58060425  0.01725551    -0.78300
C304        C  0.79691135  0.59707957  0.02272431     1.02300
Cr305      Cr  0.77432188  0.62602392  0.99627634     1.93700
Cr306      Cr  0.72977768  0.60515582  0.99650089     1.93200
Cr307      Cr  0.76965387  0.57745631  0.98963796     1.39100
O308        O  0.75788519  0.60273220  0.99397073    -1.23400
O309        O  0.53229190  0.05891296  0.80118956    -0.85600
O310        O  0.51235669  0.05043400  0.76305193    -0.82700
C311        C  0.51859243  0.06314885  0.74832821     0.97800
O312        O  0.53786435  0.06349665  0.74237803    -0.82700
O313        O  0.58107676  0.05652936  0.74519546    -0.85300
C314        C  0.58801800  0.06871451  0.75973716     1.02400
O315        O  0.58307981  0.06601657  0.77895929    -0.78100
O316        O  0.56291644  0.04877759  0.81372111    -0.78300
C317        C  0.54910095  0.06334397  0.81160821     1.02300
O318        O  0.53988954  0.01026898  0.80720861    -0.85600
O319        O  0.52233820  0.00532203  0.76719554    -0.82700
C320        C  0.52115706  0.00551492  0.74697893     0.97900
O321        O  0.53026992  0.01986334  0.73627224    -0.82700
O322        O  0.57306812  0.01145270  0.74367070    -0.85300
C323        C  0.59153954  0.01153104  0.75184059     1.02300
O324        O  0.59660128  0.02471536  0.76614599    -0.78100
O325        O  0.57359667  0.00705361  0.79775490    -0.78300
C326        C  0.55732265  0.99926732  0.80665155     1.02300
Cr327      Cr  0.52836389  0.03155741  0.78437930     1.93700
Cr328      Cr  0.55557143  0.03761769  0.74405666     1.93200
Cr329      Cr  0.57718702  0.03663708  0.78816507     1.39100
O330        O  0.55350277  0.03536737  0.77215903    -1.23400
O331        O  0.95277004  0.43472079  0.80060195    -0.85600
O332        O  0.96678699  0.41359934  0.76717919    -0.82700
C333        C  0.95183234  0.41893611  0.75465243     0.97800
O334        O  0.95142235  0.43726297  0.74608614    -0.82700
O335        O  0.96019390  0.48014806  0.73787158    -0.85300
C336        C  0.94669514  0.48984820  0.74908929     1.02400
O337        O  0.94699729  0.48790202  0.76924279    -0.78100
O338        O  0.95316517  0.46884907  0.80841375    -0.78300
C339        C  0.94365606  0.45056891  0.80876551     1.02300
O340        O  0.99555368  0.44553272  0.81305960    -0.85600
O341        O  0.00976698  0.42688712  0.77591033    -0.82700
C342        C  0.00930189  0.42070076  0.75684653     0.97900
O343        O  0.99611556  0.42860504  0.74365519    -0.82700
O344        O  0.00381198  0.47201794  0.74138991    -0.85300
C345        C  0.00412276  0.49114968  0.74781713     1.02300
O346        O  0.99241164  0.49718610  0.76349587    -0.78100
O347        O  0.00243739  0.47711507  0.80105078    -0.78300
C348        C  0.00881370  0.46039659  0.81063866     1.02300
Cr349      Cr  0.98118758  0.43225802  0.78816367     1.93700
Cr350      Cr  0.97786017  0.45449238  0.74448131     1.93200
Cr351      Cr  0.97410455  0.48102820  0.78535960     1.39100
O352        O  0.97775914  0.45617134  0.77271407    -1.23400
O353        O  0.95206744  0.83652411  0.58762197    -0.85600
O354        O  0.96603566  0.80311210  0.60997963    -0.82700
C355        C  0.95192982  0.79026278  0.60347603     0.97800
O356        O  0.95335970  0.78176687  0.58528949    -0.82700
O357        O  0.96382471  0.77456691  0.54338402    -0.85300
C358        C  0.95105468  0.78566187  0.53232418     1.02400
O359        O  0.95130389  0.80595316  0.53375277    -0.78100
O360        O  0.95620729  0.84523304  0.55382543    -0.78300
C361        C  0.94489056  0.84514868  0.57093928     1.02300
O362        O  0.99519370  0.85022947  0.58003467    -0.85600
O363        O  0.00935257  0.81372282  0.59947759    -0.82700
C364        C  0.01028480  0.79440083  0.60476067     0.97900
O365        O  0.99776061  0.78076974  0.59662774    -0.82700
O366        O  0.00767676  0.77940638  0.55346270    -0.85300
C367        C  0.00862684  0.78610896  0.53441871     1.02300
O368        O  0.99648746  0.80110049  0.52777624    -0.78100
O369        O  0.00538524  0.83817088  0.54946268    -0.78300
C370        C  0.00996667  0.84788255  0.56664832     1.02300
Cr371      Cr  0.98071324  0.82484693  0.59226682     1.93700
Cr372      Cr  0.98060401  0.78130544  0.56971444     1.93200
Cr373      Cr  0.97754635  0.82238791  0.54305511     1.39100
O374        O  0.97950381  0.80950959  0.56811308    -1.23400
O375        O  0.79760091  0.00957637  0.40772108    -0.85600
O376        O  0.76159904  0.99342166  0.38854640    -0.82700
C377        C  0.74211527  0.99143546  0.38388093     0.97800
O378        O  0.72803240  0.00416679  0.39093481    -0.82700
O379        O  0.72516740  0.99711008  0.43395792    -0.85300
C380        C  0.73179873  0.99651208  0.45298881     1.02400
O381        O  0.74751904  0.00818579  0.45905796    -0.78100
O382        O  0.78539560  0.99922313  0.43813825    -0.78300
C383        C  0.79564269  0.99479367  0.42123868     1.02300
O384        O  0.78199129  0.05173637  0.39777758    -0.85600
O385        O  0.74962996  0.03514786  0.37540136    -0.82700
C386        C  0.73601104  0.04902702  0.38067028     0.97900
O387        O  0.72825746  0.04939457  0.39920840    -0.82700
O388        O  0.72090023  0.04081348  0.44167668    -0.85300
C389        C  0.73203828  0.05434752  0.45145726     1.02300
O390        O  0.75234361  0.05374528  0.45049022    -0.78100
O391        O  0.79153357  0.04889618  0.43142903    -0.78300
C392        C  0.79069613  0.05983921  0.41393906     1.02300
Cr393      Cr  0.77173008  0.02247866  0.39433066     1.93700
Cr394      Cr  0.72782575  0.02302384  0.41640110     1.93200
Cr395      Cr  0.76896556  0.02715668  0.44311049     1.39100
O396        O  0.75612293  0.02412280  0.41821389    -1.23400
O397        O  0.89000757  0.35198864  0.47422333    -0.85600
O398        O  0.86870552  0.31440994  0.46433625    -0.82700
C399        C  0.86246477  0.29535740  0.46630600     0.97800
O400        O  0.87091320  0.28305015  0.47992726    -0.82700
O401        O  0.91340683  0.27822209  0.46829143    -0.85300
C402        C  0.93190226  0.28538464  0.46408233     1.02400
O403        O  0.93973690  0.30134980  0.47408587    -0.78100
O404        O  0.92067968  0.33907257  0.46517386    -0.78300
C405        C  0.90362754  0.34886481  0.45989826     1.02300
O406        O  0.88356304  0.34260724  0.51837272    -0.85600
O407        O  0.85970828  0.30945418  0.50855929    -0.82700
C408        C  0.86550394  0.29721962  0.52346124     0.97900
O409        O  0.88374206  0.28832354  0.52315850    -0.82700
O410        O  0.92495948  0.27673387  0.51138502    -0.85300
C411        C  0.93721015  0.28792877  0.52258756     1.02300
O412        O  0.93736261  0.30812085  0.52020112    -0.78100
O413        O  0.91834589  0.34744829  0.51518153    -0.78300
C414        C  0.90089405  0.34944021  0.52594221     1.02300
Cr415      Cr  0.87771167  0.32842889  0.49127862     1.93700
Cr416      Cr  0.89842370  0.28399809  0.49554383     1.93200
Cr417      Cr  0.92712755  0.32383123  0.49358926     1.39100
O418        O  0.90138879  0.31211372  0.49339127    -1.23400
O419        O  0.49572246  0.35212832  0.90423250    -0.85600
O420        O  0.51096584  0.31723940  0.88306598    -0.82700
C421        C  0.51271062  0.29808634  0.87748434     0.97800
O422        O  0.49925788  0.28401912  0.88307877    -0.82700
O423        O  0.50536783  0.27756198  0.92601061    -0.85300
C424        C  0.50670798  0.28358414  0.94520410     1.02400
O425        O  0.49524415  0.29888055  0.95224748    -0.78100
O426        O  0.50542319  0.33721494  0.93367552    -0.78300
C427        C  0.51033631  0.34862461  0.91768110     1.02300
O428        O  0.45317346  0.33867021  0.89319839    -0.85600
O429        O  0.46901852  0.30780855  0.86816470    -0.82700
C430        C  0.45472159  0.29413630  0.87194970     0.97900
O431        O  0.45367256  0.28513373  0.88999098    -0.82700
O432        O  0.46070454  0.27412343  0.93234323    -0.85300
C433        C  0.44856692  0.28498564  0.94416478     1.02300
O434        O  0.45018939  0.30522670  0.94471729    -0.78100
O435        O  0.45615966  0.34538635  0.92753472    -0.78300
C436        C  0.44529373  0.34617470  0.91004594     1.02300
Cr437      Cr  0.48208241  0.32776609  0.88911953     1.93700
Cr438      Cr  0.47964373  0.28243872  0.90801692     1.93200
Cr439      Cr  0.47701660  0.32152581  0.93768892     1.39100
O440        O  0.47951996  0.31045311  0.91188457    -1.23400
O441        O  0.90069211  0.39407068  0.67039618    -0.85600
O442        O  0.91628999  0.35926419  0.69148012    -0.82700
C443        C  0.90491937  0.36098591  0.70816603     0.97800
O444        O  0.88629865  0.35372105  0.70898697    -0.82700
O445        O  0.84664872  0.34339271  0.69543574    -0.85300
C446        C  0.84198725  0.36274427  0.69822043     1.02400
O447        O  0.84525025  0.37555339  0.68284952    -0.78100
O448        O  0.86992447  0.39820309  0.65365065    -0.78300
C449        C  0.88649993  0.40628710  0.66281034     1.02300
O450        O  0.90178381  0.37140957  0.63014599    -0.85600
O451        O  0.91321094  0.33599655  0.65177423    -0.82700
C452        C  0.91247336  0.31988840  0.66370233     0.97900
O453        O  0.90464911  0.32116309  0.68217520    -0.82700
O454        O  0.86567209  0.31559363  0.66506473    -0.85300
C455        C  0.84916820  0.31877973  0.65403215     1.02300
O456        O  0.84167649  0.33793639  0.65182906    -0.78100
O457        O  0.86863430  0.36104958  0.62444876    -0.78300
C458        C  0.88715244  0.36564367  0.61728217     1.02300
Cr459      Cr  0.90617910  0.36452308  0.66142471     1.93700
Cr460      Cr  0.87611686  0.33504414  0.68653781     1.93200
Cr461      Cr  0.85750413  0.36735120  0.65412194     1.39100
O462        O  0.87985668  0.35576981  0.66703871    -1.23400
O463        O  0.80421238  0.16480073  0.56455036    -0.85600
O464        O  0.78528709  0.19979077  0.54624047    -0.82700
C465        C  0.76704982  0.19870350  0.55512678     0.97800
O466        O  0.76439853  0.20455747  0.57403943    -0.82700
O467        O  0.77199656  0.21463937  0.61524379    -0.85300
C468        C  0.77014464  0.19546375  0.62104119     1.02400
O469        O  0.78615786  0.18309430  0.61898871    -0.78100
O470        O  0.81802713  0.16122971  0.59680919    -0.78300
C471        C  0.81053928  0.15288964  0.57958783     1.02300
O472        O  0.84432739  0.18716063  0.56848685    -0.85600
O473        O  0.82451624  0.22295369  0.55497525    -0.82700
C474        C  0.81262765  0.23909254  0.55601593     0.97900
O475        O  0.79303041  0.23711668  0.56015280    -0.82700
O476        O  0.80385877  0.24359561  0.60106694    -0.85300
C477        C  0.81355188  0.24012459  0.61827768     1.02300
O478        O  0.81596724  0.22088800  0.62530685    -0.78100
O479        O  0.84608931  0.19920469  0.60123113    -0.78300
C480        C  0.85538180  0.19424662  0.58392580     1.02300
Cr481      Cr  0.81383013  0.19437621  0.56030253     1.93700
Cr482      Cr  0.78478260  0.22339456  0.58746020     1.93200
Cr483      Cr  0.81575328  0.19181556  0.60928944     1.39100
O484        O  0.80495897  0.20303749  0.58585342    -1.23400
O485        O  0.84040218  0.44688525  0.83719942    -0.85600
O486        O  0.82253029  0.45942403  0.80003578    -0.82700
C487        C  0.81198631  0.45803474  0.78302000     0.97800
O488        O  0.79250019  0.45256341  0.78356346    -0.82700
O489        O  0.80505970  0.41256708  0.77887491    -0.85300
C490        C  0.81559193  0.39583306  0.78200746     1.02400
O491        O  0.81729039  0.38818176  0.80112380    -0.78100
O492        O  0.84504619  0.41486971  0.82409945    -0.78300
C493        C  0.85289690  0.43275329  0.82981258     1.02300
O494        O  0.79853632  0.44813939  0.85626624    -0.85600
O495        O  0.78127757  0.46612109  0.82038882    -0.82700
C496        C  0.76349504  0.45633022  0.82122415     0.97900
O497        O  0.76202360  0.43739416  0.81518300    -0.82700
O498        O  0.77216166  0.39672588  0.80617257    -0.85300
C499        C  0.76969760  0.39060968  0.82522819     1.02300
O500        O  0.78534294  0.39267174  0.83815142    -0.78100
O501        O  0.81523074  0.41742611  0.86114758    -0.78300
C502        C  0.80602532  0.43419779  0.86880723     1.02300
Cr503      Cr  0.81007512  0.45337368  0.82776918     1.93700
Cr504      Cr  0.78421210  0.42499891  0.79757863     1.93200
Cr505      Cr  0.81488350  0.40448306  0.83040884     1.39100
O506        O  0.80316436  0.42740625  0.81877492    -1.23400
O507        O  0.61399960  0.37143538  0.91082138    -0.85600
O508        O  0.63307552  0.33531945  0.92358848    -0.82700
C509        C  0.64338671  0.31825393  0.92157405     0.97800
O510        O  0.66271646  0.31887744  0.91567100    -0.82700
O511        O  0.64875068  0.31443996  0.87575409    -0.85300
C512        C  0.63890772  0.31785453  0.85863244     1.02400
O513        O  0.63744265  0.33710008  0.85126064    -0.78100
O514        O  0.60901139  0.35987351  0.87810561    -0.78300
C515        C  0.60140820  0.36480421  0.89633819     1.02300
O516        O  0.65510880  0.39229938  0.91162989    -0.85600
O517        O  0.67434995  0.35729965  0.92865714    -0.82700
C518        C  0.69140363  0.35868516  0.91770170     0.97900
O519        O  0.69261926  0.35047317  0.89963251    -0.82700
O520        O  0.68161092  0.34181544  0.85945495    -0.85300
C521        C  0.68442320  0.36104381  0.85395956     1.02300
O522        O  0.66897632  0.37411991  0.85644213    -0.78100
O523        O  0.63865681  0.39694448  0.88083356    -0.78300
C524        C  0.64762701  0.40474200  0.89763228     1.02300
Cr525      Cr  0.64474132  0.36333328  0.91690153     1.93700
Cr526      Cr  0.67009846  0.33295827  0.88791450     1.93200
Cr527      Cr  0.63938269  0.36620911  0.86792575     1.39100
O528        O  0.65122497  0.35433861  0.89077966    -1.23400
O529        O  0.58937959  0.16069175  0.81999143    -0.85600
O530        O  0.61658362  0.18914476  0.79785292    -0.82700
C531        C  0.60876286  0.19096620  0.77882971     0.97800
O532        O  0.59130473  0.20060070  0.77602813    -0.82700
O533        O  0.55178187  0.21738572  0.78163985    -0.85300
C534        C  0.54241848  0.19948934  0.78146470     1.02400
O535        O  0.54305642  0.18744827  0.79748826    -0.78100
O536        O  0.55692798  0.16623379  0.83245002    -0.78300
C537        C  0.57112592  0.15349979  0.82546873     1.02300
O538        O  0.58817379  0.18833838  0.85825384    -0.85600
O539        O  0.61209806  0.21874427  0.83592598    -0.82700
C540        C  0.61491341  0.23435825  0.82330708     0.97900
O541        O  0.61011959  0.23179813  0.80387569    -0.82700
O542        O  0.57056210  0.24483435  0.81365019    -0.85300
C543        C  0.55249324  0.24400147  0.82210168     1.02300
O544        O  0.54100024  0.22732578  0.82102473    -0.78100
O545        O  0.55806392  0.20629254  0.85493287    -0.78300
C546        C  0.57184180  0.19753287  0.86678154     1.02300
Cr547      Cr  0.60036550  0.19012703  0.82721566     1.93700
Cr548      Cr  0.58068854  0.22224275  0.79528080     1.93200
Cr549      Cr  0.55159971  0.19727974  0.82570602     1.39100
O550        O  0.57759215  0.20295276  0.81614804    -1.23400
O551        O  0.60782026  0.14085758  0.65016364    -0.85600
O552        O  0.63048276  0.16542935  0.67933821    -0.82700
C553        C  0.64329108  0.16862107  0.69471118     0.97800
O554        O  0.66272888  0.16399054  0.69193122    -0.82700
O555        O  0.65235313  0.12452347  0.70550760    -0.85300
C556        C  0.64451117  0.10617643  0.70496262     1.02400
O557        O  0.64603842  0.09448044  0.68845595    -0.78100
O558        O  0.61169662  0.11007153  0.66682376    -0.78300
C559        C  0.59959876  0.12424916  0.65910386     1.02300
O560        O  0.64524469  0.14217714  0.62141945    -0.85600
O561        O  0.66840580  0.16912046  0.64855226    -0.82700
C562        C  0.68753320  0.16139934  0.65069132     0.97900
O563        O  0.69038851  0.14471869  0.66148291    -0.82700
O564        O  0.68461697  0.10586185  0.67888383    -0.85300
C565        C  0.68616165  0.09808826  0.66042739     1.02300
O566        O  0.67006293  0.09727359  0.64842678    -0.78100
O567        O  0.63448479  0.10919227  0.62688094    -0.78300
C568        C  0.64026339  0.12390483  0.61415690     1.02300
Cr569      Cr  0.63879409  0.15324055  0.65079482     1.93700
Cr570      Cr  0.67100691  0.13448363  0.68308677     1.93200
Cr571      Cr  0.64131943  0.10454019  0.65811080     1.39100
O572        O  0.65018892  0.13081665  0.66371593    -1.23400
O573        O  0.99639575  0.20885039  0.57990479    -0.85600
O574        O  0.01344672  0.24339350  0.60020765    -0.82700
C575        C  0.01629072  0.26256506  0.60528154     0.97800
O576        O  0.00408544  0.27730737  0.59833684    -0.82700
O577        O  0.00929304  0.28140694  0.55470691    -0.85300
C578        C  0.00904323  0.27504151  0.53559008     1.02400
O579        O  0.99697941  0.25982111  0.52964597    -0.78100
O580        O  0.00605022  0.22215103  0.54973366    -0.78300
C581        C  0.01094274  0.21158991  0.56631929     1.02300
O582        O  0.95431719  0.22452313  0.59053654    -0.85600
O583        O  0.97216091  0.25574357  0.61418961    -0.82700
C584        C  0.95839522  0.26973899  0.60960229     0.97900
O585        O  0.95831296  0.27870686  0.59153895    -0.82700
O586        O  0.96500333  0.28725182  0.54871034    -0.85300
C587        C  0.95202216  0.27657908  0.53754347     1.02300
O588        O  0.95228821  0.25623034  0.53825947    -0.78100
O589        O  0.95733032  0.21598290  0.55666192    -0.78300
C590        C  0.94643532  0.21616410  0.57402916     1.02300
Cr591      Cr  0.98396449  0.23425887  0.59422169     1.93700
Cr592      Cr  0.98400401  0.27892418  0.57332269     1.93200
Cr593      Cr  0.97845269  0.23877559  0.54545894     1.39100
O594        O  0.98211443  0.25077886  0.57075593    -1.23400
O595        O  0.15638035  0.00786532  0.58673653    -0.85600
O596        O  0.19418804  0.99452089  0.60434819    -0.82700
C597        C  0.21346949  0.99492640  0.60998646     0.97800
O598        O  0.22635871  0.00837170  0.60218674    -0.82700
O599        O  0.22768073  0.99889710  0.55955789    -0.85300
C600        C  0.22027477  0.99733353  0.54087363     1.02400
O601        O  0.20460130  0.00895861  0.53442095    -0.78100
O602        O  0.16745302  0.99991739  0.55516191    -0.78300
C603        C  0.15838273  0.99406808  0.57233699     1.02300
O604        O  0.16902110  0.05101209  0.59569172    -0.85600
O605        O  0.20328702  0.03799476  0.61641284    -0.82700
C606        C  0.21540337  0.05284556  0.61005233     0.97900
O607        O  0.22330938  0.05254387  0.59149875    -0.82700
O608        O  0.23103152  0.04205424  0.54914385    -0.85300
C609        C  0.21965127  0.05559169  0.53955926     1.02300
O610        O  0.19938187  0.05500835  0.54147776    -0.78100
O611        O  0.16067593  0.04965669  0.56162496    -0.78300
C612        C  0.16123827  0.05988901  0.57944762     1.02300
Cr613      Cr  0.18167294  0.02281542  0.59877577     1.93700
Cr614      Cr  0.22486421  0.02552287  0.57564841     1.93200
Cr615      Cr  0.18323094  0.02813708  0.54982576     1.39100
O616        O  0.19650167  0.02546976  0.57448080    -1.23400
O617        O  0.28211522  0.12537219  0.46979046    -0.85600
O618        O  0.25271043  0.15029956  0.48974785    -0.82700
C619        C  0.23844384  0.14664541  0.47601259     0.97800
O620        O  0.22924132  0.12872679  0.47541365    -0.82700
O621        O  0.21921526  0.08585088  0.48141449    -0.85300
C622        C  0.22971068  0.07443311  0.46854926     1.02400
O623        O  0.24999234  0.07447427  0.46861828    -0.78100
O624        O  0.29024899  0.09124423  0.47262242    -0.78300
C625        C  0.28995007  0.10871919  0.46166216     1.02300
O626        O  0.29941069  0.11280663  0.51052826    -0.85600
O627        O  0.26649178  0.13368264  0.52960238    -0.82700
C628        C  0.24745586  0.13821544  0.53400505     0.97900
O629        O  0.23199493  0.13357130  0.52154536    -0.82700
O630        O  0.22455745  0.09054622  0.52545197    -0.85300
C631        C  0.23058716  0.07129170  0.52549260     1.02300
O632        O  0.24595169  0.06508376  0.51350927    -0.78100
O633        O  0.28499177  0.08369075  0.52151493    -0.78300
C634        C  0.29666514  0.09967166  0.52551315     1.02300
Cr635      Cr  0.27398785  0.12871650  0.49980833     1.93700
Cr636      Cr  0.22842611  0.10971197  0.50064104     1.93200
Cr637      Cr  0.26761383  0.08036369  0.49443124     1.39100
O638        O  0.25648876  0.10597715  0.49836145    -1.23400
O639        O  0.07259898  0.33606256  0.51983076    -0.85600
O640        O  0.09612628  0.30516624  0.50150483    -0.82700
C641        C  0.09128884  0.28848212  0.51172777     0.97800
O642        O  0.07265118  0.28088060  0.51149801    -0.82700
O643        O  0.02968128  0.27624542  0.50409757    -0.85300
C644        C  0.02161317  0.28650531  0.51948872     1.02400
O645        O  0.02282546  0.30667398  0.52017570    -0.78100
O646        O  0.03940856  0.34682221  0.51546790    -0.78300
C647        C  0.05646121  0.34565442  0.52699959     1.02300
O648        O  0.06260684  0.35381858  0.47836345    -0.85600
O649        O  0.08417413  0.32025122  0.46049673    -0.82700
C650        C  0.08869672  0.30106912  0.45676335     0.97900
O651        O  0.08048427  0.28591281  0.46730138    -0.82700
O652        O  0.03754292  0.28500436  0.45982026    -0.85300
C653        C  0.01797272  0.28940882  0.46126583     1.02300
O654        O  0.01149037  0.30268678  0.47535108    -0.78100
O655        O  0.03240419  0.34133919  0.46694076    -0.78300
C656        C  0.04930428  0.35197101  0.46326200     1.02300
Cr657      Cr  0.07703620  0.32789675  0.49004754     1.93700
Cr658      Cr  0.05495783  0.28411567  0.48596158     1.93200
Cr659      Cr  0.02812632  0.32411262  0.49405963     1.39100
O660        O  0.05335383  0.31196908  0.49006896    -1.23400
O661        O  0.34169537  0.10900177  0.64888606    -0.85600
O662        O  0.32211603  0.09676243  0.68534955    -0.82700
C663        C  0.31027975  0.09661690  0.70152319     0.97800
O664        O  0.29180476  0.10481075  0.70081894    -0.82700
O665        O  0.30849088  0.14389486  0.70552105    -0.85300
C666        C  0.31801545  0.16127571  0.70263946     1.02400
O667        O  0.31994559  0.16880689  0.68351741    -0.78100
O668        O  0.34783413  0.14139054  0.66081699    -0.78300
C669        C  0.35470286  0.12298311  0.65558164     1.02300
O670        O  0.30065625  0.10968976  0.62823145    -0.85600
O671        O  0.28147208  0.09309585  0.66333264    -0.82700
C672        C  0.26438786  0.10402605  0.66202725     0.97900
O673        O  0.26348124  0.12273967  0.66884950    -0.82700
O674        O  0.27668855  0.16239096  0.67865979    -0.85300
C675        C  0.27385359  0.16773478  0.65947216     1.02300
O676        O  0.28899022  0.16465256  0.64630900    -0.78100
O677        O  0.31854821  0.13958428  0.62351955    -0.78300
C678        C  0.30900249  0.12309319  0.61575896     1.02300
Cr679      Cr  0.31106401  0.10391066  0.65711612     1.93700
Cr680      Cr  0.28643546  0.13324047  0.68691166     1.93200
Cr681      Cr  0.31797618  0.15245019  0.65430110     1.39100
O682        O  0.30537648  0.12999737  0.66593418    -1.23400
O683        O  0.05651645  0.37152456  0.62991665    -0.85600
O684        O  0.04678668  0.33466200  0.64991228    -0.82700
C685        C  0.04927521  0.31830999  0.66130426     0.97800
O686        O  0.05513936  0.32015247  0.68053828    -0.82700
O687        O  0.09529566  0.31728238  0.66762817    -0.85300
C688        C  0.11190859  0.32065798  0.65709611     1.02400
O689        O  0.11801845  0.34010690  0.65374474    -0.78100
O690        O  0.08959935  0.36070757  0.62534071    -0.78300
C691        C  0.07121469  0.36510964  0.61757731     1.02300
O692        O  0.05454859  0.39325696  0.67013339    -0.85600
O693        O  0.03950835  0.35708853  0.68989538    -0.82700
C694        C  0.04960284  0.35966107  0.70733003     0.97900
O695        O  0.06879592  0.35422077  0.70895639    -0.82700
O696        O  0.10981652  0.34729463  0.69891164    -0.85300
C697        C  0.11462112  0.36683959  0.70018553     1.02300
O698        O  0.11171444  0.37854879  0.68380525    -0.78100
O699        O  0.08535709  0.39852931  0.65369661    -0.78300
C700        C  0.06825436  0.40596995  0.66251515     1.02300
Cr701      Cr  0.05118264  0.36352671  0.66061733     1.93700
Cr702      Cr  0.08194344  0.33631198  0.68758296     1.93200
Cr703      Cr  0.09998676  0.36862614  0.65503783     1.39100
O704        O  0.07788422  0.35638321  0.66761795    -1.23400
O705        O  0.11518717  0.20301358  0.57091378    -0.85600
O706        O  0.15110982  0.21593453  0.54969485    -0.82700
C707        C  0.14871885  0.23494009  0.55606152     0.97800
O708        O  0.15479842  0.24003912  0.57438938    -0.82700
O709        O  0.16475689  0.23830340  0.61600410    -0.85300
C710        C  0.14659957  0.23940541  0.62467671     1.02400
O711        O  0.13468062  0.22290129  0.62532097    -0.78100
O712        O  0.11079551  0.19140292  0.60398038    -0.78300
C713        C  0.10284604  0.19861360  0.58623668     1.02300
O714        O  0.13320196  0.16219431  0.57850100    -0.85600
O715        O  0.17152525  0.17695568  0.56391693    -0.82700
C716        C  0.18838075  0.18793834  0.56406745     0.97900
O717        O  0.18722075  0.20804664  0.56535737    -0.82700
O718        O  0.19330245  0.20418318  0.60678104    -0.85300
C719        C  0.19093276  0.19550811  0.62459052     1.02300
O720        O  0.17191206  0.19250825  0.63204610    -0.78100
O721        O  0.14888253  0.16150907  0.60945299    -0.78300
C722        C  0.14214466  0.15153113  0.59310759     1.02300
Cr723      Cr  0.14355205  0.19039009  0.56740030     1.93700
Cr724      Cr  0.17339732  0.22125520  0.59068654     1.93200
Cr725      Cr  0.14217892  0.19264363  0.61629008     1.39100
O726        O  0.15281066  0.20157128  0.59184095    -1.23400
O727        O  0.34537844  0.36117818  0.88010338    -0.85600
O728        O  0.31597551  0.34061153  0.85386517    -0.82700
C729        C  0.31319678  0.32136656  0.86073342     0.97800
O730        O  0.30276885  0.31809837  0.87742067    -0.82700
O731        O  0.28985497  0.32258838  0.91749867    -0.85300
C732        C  0.30913755  0.32007239  0.92296519     1.02400
O733        O  0.32143014  0.33588716  0.92418227    -0.78100
O734        O  0.34227635  0.37206395  0.91315110    -0.78300
C735        C  0.35396320  0.36569497  0.89794538     1.02300
O736        O  0.31782544  0.39939813  0.88425592    -0.85600
O737        O  0.28651137  0.37917547  0.85981673    -0.82700
C738        C  0.27031727  0.36723461  0.85709124     0.97900
O739        O  0.27181195  0.34783629  0.86223985    -0.82700
O740        O  0.26222870  0.35659000  0.90319340    -0.85300
C741        C  0.26424820  0.36151105  0.92242117     1.02300
O742        O  0.28221542  0.35976341  0.93190161    -0.78100
O743        O  0.30264033  0.39493526  0.91576461    -0.78300
C744        C  0.31003969  0.40720589  0.90155157     1.02300
Cr745      Cr  0.31551769  0.36932611  0.87072413     1.93700
Cr746      Cr  0.28312188  0.33787372  0.89029853     1.93200
Cr747      Cr  0.31145023  0.36504192  0.91947985     1.39100
O748        O  0.30349659  0.35767942  0.89334296    -1.23400
O749        O  0.13250606  0.45283264  0.85924009    -0.85600
O750        O  0.17113621  0.46564005  0.84349206    -0.82700
C751        C  0.18785197  0.46434388  0.83234072     0.97800
O752        O  0.18639961  0.46274220  0.81226375    -0.82700
O753        O  0.19138385  0.42096378  0.81596235    -0.85300
C754        C  0.18877415  0.40443844  0.82692016     1.02400
O755        O  0.16969018  0.39768003  0.83096382    -0.78100
O756        O  0.14674840  0.42122917  0.86106568    -0.78300
C757        C  0.14076426  0.43823938  0.87044151     1.02300
O758        O  0.11383135  0.45953769  0.81860860    -0.85600
O759        O  0.15080590  0.47955860  0.80492113    -0.82700
C760        C  0.14747226  0.47318058  0.78614278     0.97900
O761        O  0.15275020  0.45461685  0.78095025    -0.82700
O762        O  0.16129912  0.41262952  0.78288526    -0.85300
C763        C  0.14338877  0.40335008  0.78273998     1.02300
O764        O  0.13221508  0.40286336  0.79979783    -0.78100
O765        O  0.10920895  0.42646051  0.83049137    -0.78300
C766        C  0.10140206  0.44425556  0.82327089     1.02300
Cr767      Cr  0.14278844  0.46260120  0.83063254     1.93700
Cr768      Cr  0.17130684  0.43774530  0.79951585     1.93200
Cr769      Cr  0.14016056  0.41352596  0.82982816     1.39100
O770        O  0.15119113  0.43753426  0.81987629    -1.23400
O771        O  0.40120538  0.16519326  0.81353509    -0.85600
O772        O  0.41650147  0.19779174  0.78957023    -0.82700
C773        C  0.40395261  0.19695501  0.77350153     0.97800
O774        O  0.38629125  0.20629113  0.77321165    -0.82700
O775        O  0.34777397  0.21780860  0.78729112    -0.85300
C776        C  0.34258993  0.19850771  0.78494050     1.02400
O777        O  0.34612389  0.18577996  0.80026955    -0.78100
O778        O  0.37011320  0.16309938  0.82985611    -0.78300
C779        C  0.38642191  0.15397205  0.82130694     1.02300
O780        O  0.40360297  0.19044115  0.85237461    -0.85600
O781        O  0.41639075  0.22378171  0.82866435    -0.82700
C782        C  0.41532227  0.23966919  0.81650789     0.97900
O783        O  0.40696677  0.23797945  0.79831801    -0.82700
O784        O  0.36864115  0.24556102  0.81688753    -0.85300
C785        C  0.35148932  0.24306928  0.82692478     1.02300
O786        O  0.34378604  0.22411527  0.82958882    -0.78100
O787        O  0.37037242  0.20123822  0.85739671    -0.78300
C788        C  0.38875756  0.19657479  0.86485326     1.02300
Cr789      Cr  0.40767364  0.19509949  0.82053280     1.93700
Cr790      Cr  0.37776765  0.22542381  0.79542096     1.93200
Cr791      Cr  0.35886525  0.19432097  0.82836303     1.39100
O792        O  0.38144918  0.20474932  0.81506071    -1.23400
O793        O  0.29997589  0.51207601  0.90721368    -0.85600
O794        O  0.26759475  0.49045859  0.88712286    -0.82700
C795        C  0.24863149  0.48532340  0.88284196     0.97800
O796        O  0.23284416  0.49711466  0.88795375    -0.82700
O797        O  0.22761384  0.49517630  0.93081089    -0.85300
C798        C  0.23310232  0.49676240  0.95005905     1.02400
O799        O  0.24703624  0.51052674  0.95580886    -0.78100
O800        O  0.28620730  0.50192175  0.93697513    -0.78300
C801        C  0.29797924  0.49769560  0.92114208     1.02300
O802        O  0.28101309  0.55125926  0.89257828    -0.85600
O803        O  0.25251769  0.52898301  0.86892974    -0.82700
C804        C  0.23619980  0.54054595  0.87132831     0.97900
O805        O  0.22747650  0.54264985  0.88935044    -0.82700
O806        O  0.21955461  0.54029398  0.93297669    -0.85300
C807        C  0.22991597  0.55456494  0.94292824     1.02300
O808        O  0.25021644  0.55458838  0.94290535    -0.78100
O809        O  0.29047790  0.55003973  0.92636163    -0.78300
C810        C  0.28927767  0.56026179  0.90852066     1.02300
Cr811      Cr  0.27416777  0.52087302  0.89078037     1.93700
Cr812      Cr  0.22900792  0.51923046  0.91044857     1.93200
Cr813      Cr  0.26823434  0.52876585  0.93878452     1.39100
O814        O  0.25692205  0.52304860  0.91349939    -1.23400
O815        O  0.28459958  0.93121043  0.52069136    -0.85600
O816        O  0.25267876  0.90746626  0.50504089    -0.82700
C817        C  0.23935642  0.91163581  0.51956390     0.97800
O818        O  0.23007091  0.92960512  0.52021099    -0.82700
O819        O  0.21985485  0.97232463  0.51300800    -0.85300
C820        C  0.23107778  0.98299933  0.52582686     1.02400
O821        O  0.25136009  0.98245941  0.52491931    -0.78100
O822        O  0.29125671  0.96564574  0.51791980    -0.78300
C823        C  0.29220454  0.94802559  0.52850663     1.02300
O824        O  0.29733814  0.94331265  0.47818706    -0.85600
O825        O  0.26200465  0.92332859  0.46312932    -0.82700
C826        C  0.24319813  0.91657473  0.46211573     0.97900
O827        O  0.22891306  0.92259354  0.47512603    -0.82700
O828        O  0.22280245  0.96612002  0.46902830    -0.85300
C829        C  0.22894540  0.98536895  0.46854230     1.02300
O830        O  0.24448715  0.99171678  0.48018551    -0.78100
O831        O  0.28245067  0.97311137  0.46946006    -0.78300
C832        C  0.29353466  0.95708454  0.46399371     1.02300
Cr833      Cr  0.27296381  0.92818171  0.49187668     1.93700
Cr834      Cr  0.22758670  0.94771481  0.49440886     1.93200
Cr835      Cr  0.26721908  0.97651693  0.49784609     1.39100
O836        O  0.25582163  0.95103996  0.49481997    -1.23400
O837        O  0.37586465  0.89718322  0.83650137    -0.85600
O838        O  0.35517979  0.87411743  0.80422275    -0.82700
C839        C  0.35502264  0.86207286  0.78787305     0.97800
O840        O  0.36294364  0.84357436  0.78927490    -0.82700
O841        O  0.40531976  0.85323226  0.78718234    -0.85300
C842        C  0.42406366  0.85846065  0.79224944     1.02400
O843        O  0.43025629  0.85722174  0.81146285    -0.78100
O844        O  0.40924963  0.89313969  0.82550771    -0.78300
C845        C  0.39365727  0.90530676  0.82983267     1.02300
O846        O  0.36987546  0.85910719  0.86557132    -0.85600
O847        O  0.34767273  0.83683691  0.83433786    -0.82700
C848        C  0.35522914  0.81777408  0.83232235     0.97900
O849        O  0.37284719  0.81486696  0.82323200    -0.82700
O850        O  0.41474536  0.82111513  0.81851188    -0.85300
C851        C  0.41603912  0.81940155  0.83852298     1.02300
O852        O  0.41659994  0.83591544  0.84990212    -0.78100
O853        O  0.40161112  0.87341320  0.86581019    -0.78300
C854        C  0.38635269  0.86496808  0.87594966     1.02300
Cr855      Cr  0.36359858  0.86616581  0.83452003     1.93700
Cr856      Cr  0.38887535  0.83481727  0.80595775     1.93200
Cr857      Cr  0.41273847  0.86419017  0.83722829     1.39100
O858        O  0.38810462  0.85529459  0.82580976    -1.23400
O859        O  0.30653521  0.66047534  0.87844913    -0.85600
O860        O  0.28778100  0.69118972  0.85273454    -0.82700
C861        C  0.26830604  0.69490262  0.85850445     0.97800
O862        O  0.26456429  0.70611970  0.87469137    -0.82700
O863        O  0.26817437  0.71541155  0.91619604    -0.85300
C864        C  0.26503635  0.69599510  0.92058707     1.02400
O865        O  0.28047731  0.68305622  0.92157360    -0.78100
O866        O  0.31743689  0.66221978  0.91148247    -0.78300
C867        C  0.31048144  0.65123094  0.89611543     1.02300
O868        O  0.34566223  0.68706139  0.88509520    -0.85600
O869        O  0.32707053  0.71938536  0.86092680    -0.82700
C870        C  0.31613355  0.73639875  0.85875008     0.97900
O871        O  0.29664152  0.73610229  0.86374813    -0.82700
O872        O  0.30444995  0.74252948  0.90628463    -0.85300
C873        C  0.30828222  0.73868590  0.92564826     1.02300
O874        O  0.30448299  0.72040016  0.93340501    -0.78100
O875        O  0.34035613  0.70092397  0.91708166    -0.78300
C876        C  0.35305847  0.69418490  0.90289888     1.02300
Cr877      Cr  0.31596982  0.69043673  0.87051751     1.93700
Cr878      Cr  0.28505775  0.72352662  0.89045137     1.93200
Cr879      Cr  0.31011797  0.69244043  0.91903873     1.39100
O880        O  0.30389051  0.70202976  0.89308906    -1.23400
O881        O  0.11228352  0.60472245  0.80970953    -0.85600
O882        O  0.14557318  0.58770774  0.78819295    -0.82700
C883        C  0.14579571  0.59948464  0.77161735     0.97800
O884        O  0.15596995  0.61661108  0.77104106    -0.82700
O885        O  0.16561496  0.65578492  0.78417336    -0.85300
C886        C  0.14615297  0.66020869  0.78058995     1.02400
O887        O  0.13303517  0.65766679  0.79582403    -0.78100
O888        O  0.10948915  0.63521196  0.82647840    -0.78300
C889        C  0.10059126  0.61903391  0.81755861     1.02300
O890        O  0.13592715  0.60285285  0.85011860    -0.85600
O891        O  0.16964704  0.58794621  0.82788760    -0.82700
C892        C  0.18540824  0.58618501  0.81566332     0.97900
O893        O  0.18685247  0.59737406  0.79893979    -0.82700
O894        O  0.19293490  0.63679576  0.81643462    -0.85300
C895        C  0.18992253  0.65458258  0.82521547     1.02300
O896        O  0.17065854  0.66209249  0.82657145    -0.78100
O897        O  0.14703135  0.63590943  0.85504934    -0.78300
C898        C  0.14184452  0.61772168  0.86268092     1.02300
Cr899      Cr  0.14170596  0.59777528  0.81855177     1.93700
Cr900      Cr  0.17376870  0.62635551  0.79422576     1.93200
Cr901      Cr  0.14094936  0.64645163  0.82507696     1.39100
O902        O  0.15214080  0.62345874  0.81298048    -1.23400
O903        O  0.30182307  0.94698465  0.63209600    -0.85600
O904        O  0.28359533  0.96324415  0.66803333    -0.82700
C905        C  0.26613249  0.95294513  0.66674731     0.97800
O906        O  0.26499418  0.93392612  0.67273442    -0.82700
O907        O  0.27635525  0.89347443  0.68145443    -0.85300
C908        C  0.27392427  0.88864741  0.66206792     1.02400
O909        O  0.28964982  0.89142005  0.64956716    -0.78100
O910        O  0.31863264  0.91643448  0.62706385    -0.78300
C911        C  0.30905409  0.93309530  0.61948427     1.02300
O912        O  0.34333336  0.94612833  0.65212072    -0.85600
O913        O  0.32456608  0.95753980  0.68916716    -0.82700
C914        C  0.31339804  0.95622733  0.70575303     0.97900
O915        O  0.29427849  0.94973537  0.70477264    -0.82700
O916        O  0.30859658  0.90987183  0.70944268    -0.85300
C917        C  0.32000445  0.89375411  0.70601488     1.02300
O918        O  0.32172128  0.88644958  0.68680188    -0.78100
O919        O  0.34854920  0.91360688  0.66405415    -0.78300
C920        C  0.35600860  0.93172860  0.65878027     1.02300
Cr921      Cr  0.31280389  0.95169281  0.66103063     1.93700
Cr922      Cr  0.28738747  0.92198895  0.69053225     1.93200
Cr923      Cr  0.31874763  0.90308147  0.65766374     1.39100
O924        O  0.30651450  0.92542588  0.66960069    -1.23400
O925        O  0.13703084  0.89016525  0.57613581    -0.85600
O926        O  0.17203771  0.86896661  0.56330428    -0.82700
C927        C  0.18803143  0.85683351  0.56333692     0.97800
O928        O  0.18643426  0.83793152  0.57004495    -0.82700
O929        O  0.19259179  0.85296110  0.60976725    -0.85300
C930        C  0.18993786  0.86285442  0.62697181     1.02400
O931        O  0.17083149  0.86468594  0.63483820    -0.78100
O932        O  0.14782533  0.89404686  0.60929643    -0.78300
C933        C  0.14358792  0.90217589  0.59104552     1.02300
O934        O  0.11375382  0.85056188  0.57498491    -0.85600
O935        O  0.14748598  0.82964503  0.55823936    -0.82700
C936        C  0.14551924  0.81258636  0.56905545     0.97900
O937        O  0.15374110  0.81071730  0.58714101    -0.82700
O938        O  0.16475656  0.82172445  0.62722117    -0.85300
C939        C  0.14550334  0.81839588  0.63213666     1.02300
O940        O  0.13239295  0.83387763  0.62998685    -0.78100
O941        O  0.10970023  0.86544640  0.60646469    -0.78300
C942        C  0.10153976  0.85785957  0.58912913     1.02300
Cr943      Cr  0.14331566  0.85925014  0.56997361     1.93700
Cr944      Cr  0.17283335  0.83221646  0.59833205     1.93200
Cr945      Cr  0.14091782  0.86362824  0.61896433     1.39100
O946        O  0.15217363  0.85197814  0.59586913    -1.23400
O947        O  0.05856899  0.66335970  0.64274539    -0.85600
O948        O  0.04725763  0.68148967  0.67982308    -0.82700
C949        C  0.04891610  0.69199983  0.69674966     0.97800
O950        O  0.05599659  0.71084112  0.69626541    -0.82700
O951        O  0.09543922  0.69431490  0.70018240    -0.85300
C952        C  0.11232981  0.68414213  0.69627665     1.02400
O953        O  0.11955014  0.68343750  0.67696766    -0.78100
O954        O  0.09110699  0.65678697  0.65435479    -0.78300
C955        C  0.07233559  0.65014480  0.64976628     1.02300
O956        O  0.05870730  0.70516398  0.62347108    -0.85600
O957        O  0.04277524  0.72312114  0.65955197    -0.82700
C958        C  0.05371357  0.74020664  0.65893770     0.97900
O959        O  0.07277444  0.74042355  0.66519141    -0.82700
O960        O  0.11306159  0.72675778  0.67377784    -0.85300
C961        C  0.11774117  0.73088540  0.65466955     1.02300
O962        O  0.11454520  0.71634532  0.64081735    -0.78100
O963        O  0.08856115  0.68730528  0.61772945    -0.78300
C964        C  0.07201057  0.69738218  0.61054603     1.02300
Cr965      Cr  0.05361368  0.69372358  0.65204987     1.93700
Cr966      Cr  0.08403142  0.71692480  0.68229001     1.93200
Cr967      Cr  0.10233861  0.68679221  0.64818263     1.39100
O968        O  0.08011631  0.69895298  0.66065942    -1.23400
O969        O  0.45842414  0.94697886  0.31706069    -0.85600
O970        O  0.43873968  0.92727159  0.28350844    -0.82700
C971        C  0.43492006  0.92244272  0.26446796     0.97800
O972        O  0.44688325  0.92851320  0.24927074    -0.82700
O973        O  0.44204287  0.97128453  0.24484064    -0.85300
C974        C  0.44247639  0.99046942  0.25069238     1.02400
O975        O  0.45532869  0.99663040  0.26542285    -0.78100
O976        O  0.44745428  0.97687735  0.30402792    -0.78300
C977        C  0.44350508  0.96042088  0.31510159     1.02300
O978        O  0.49886345  0.93475940  0.29905500    -0.85600
O979        O  0.47868584  0.91152179  0.26897549    -0.82700
C980        C  0.49139432  0.91563092  0.25393031     0.97900
O981        O  0.49263387  0.93410142  0.24609311    -0.82700
O982        O  0.48625431  0.97691950  0.23841342    -0.85300
C983        C  0.50061445  0.98635219  0.24894034     1.02300
O984        O  0.50069858  0.98592563  0.26913323    -0.78100
O985        O  0.49658232  0.96841223  0.30874517    -0.78300
C986        C  0.50736445  0.95085617  0.30753195     1.02300
Cr987      Cr  0.46874260  0.93193227  0.29116333     1.93700
Cr988      Cr  0.46726280  0.95274806  0.24677691     1.93200
Cr989      Cr  0.47460099  0.98036727  0.28659765     1.39100
O990        O  0.47014097  0.95525866  0.27473044    -1.23400
O991        O  0.88596553  0.54939149  0.31654998    -0.85600
O992        O  0.86641946  0.56687576  0.28181111    -0.82700
C993        C  0.86249156  0.57076313  0.26256580     0.97800
O994        O  0.87103618  0.56000832  0.24770937    -0.82700
O995        O  0.91470988  0.56610312  0.24711770    -0.85300
C996        C  0.93393170  0.56460431  0.25308805     1.02400
O997        O  0.93927809  0.55165324  0.26794700    -0.78100
O998        O  0.91692853  0.55989045  0.30534965    -0.78300
C999        C  0.89968899  0.56411223  0.31520754     1.02300
O1000       O  0.87641034  0.50751670  0.29939027    -0.85600
O1001       O  0.85439213  0.52588428  0.26712521    -0.82700
C1002       C  0.85969130  0.51504922  0.25106155     0.97900
O1003       O  0.87844385  0.51527930  0.24372475    -0.82700
O1004       O  0.92191442  0.52217957  0.23951296    -0.85300
C1005       C  0.93109359  0.50768357  0.25025891     1.02300
O1006       O  0.92903711  0.50696896  0.27045632    -0.78100
O1007       O  0.90976895  0.51103848  0.31007220    -0.78300
C1008       C  0.89247738  0.49992932  0.30890703     1.02300
Cr1009     Cr  0.87285671  0.53735782  0.29018630     1.93700
Cr1010     Cr  0.89647367  0.54059643  0.24683040     1.93200
Cr1011     Cr  0.92197652  0.53277627  0.28814309     1.39100
O1012       O  0.89721326  0.53682004  0.27495071    -1.23400
O1013       O  0.65082307  0.95132836  0.35664540    -0.85600
O1014       O  0.67203033  0.96680717  0.32171443    -0.82700
C1015       C  0.68896270  0.95567262  0.32381082     0.97800
O1016       O  0.69051520  0.93741159  0.31592984    -0.82700
O1017       O  0.67877538  0.89707564  0.30694169    -0.85300
C1018       C  0.68170316  0.89291903  0.32643003     1.02400
O1019       O  0.66610284  0.89595816  0.33904936    -0.78100
O1020       O  0.63543227  0.91990352  0.36044895    -0.78300
C1021       C  0.64376564  0.93675284  0.36867621     1.02300
O1022       O  0.61091541  0.95026518  0.33317912    -0.85600
O1023       O  0.63199882  0.96191803  0.29779229    -0.82700
C1024       C  0.64344263  0.95988503  0.28149684     0.97900
O1025       O  0.66259341  0.95377256  0.28333102    -0.82700
O1026       O  0.64732612  0.91411646  0.27859838    -0.85300
C1027       C  0.63705823  0.89727624  0.28204664     1.02300
O1028       O  0.63531013  0.89013230  0.30129448    -0.78100
O1029       O  0.60688453  0.91707947  0.32263058    -0.78300
C1030       C  0.59881414  0.93530926  0.32676146     1.02300
Cr1031     Cr  0.64209205  0.95583211  0.32664196     1.93700
Cr1032     Cr  0.66846315  0.92591435  0.29767513     1.93200
Cr1033     Cr  0.63679494  0.90695983  0.33007950     1.39100
O1034       O  0.64891940  0.92951003  0.31835038    -1.23400
O1035       O  0.55081702  0.86657243  0.12899542    -0.85600
O1036       O  0.53886327  0.82953306  0.14817979    -0.82700
C1037       C  0.54052413  0.81352108  0.16026506     0.97800
O1038       O  0.54394737  0.81604557  0.17993218    -0.82700
O1039       O  0.58555533  0.81058811  0.17089069    -0.85300
C1040       C  0.60230542  0.81412424  0.16043331     1.02400
O1041       O  0.60859338  0.83347112  0.15709087    -0.78100
O1042       O  0.58355823  0.85438755  0.12718148    -0.78300
C1043       C  0.56615040  0.85943491  0.11798272     1.02300
O1044       O  0.54608017  0.88841082  0.16858337    -0.85600
O1045       O  0.52846323  0.85249446  0.18680830    -0.82700
C1046       C  0.53708857  0.85609018  0.20473755     0.97900
O1047       O  0.55594678  0.85016154  0.20845872    -0.82700
O1048       O  0.59782435  0.84087879  0.20215238    -0.85300
C1049       C  0.60422321  0.85993087  0.20267605     1.02300
O1050       O  0.60205393  0.87158977  0.18621972    -0.78100
O1051       O  0.57842313  0.89279440  0.15502864    -0.78300
C1052       C  0.56088532  0.90076805  0.16245550     1.02300
Cr1053     Cr  0.54278532  0.85857442  0.15892538     1.93700
Cr1054     Cr  0.57059996  0.83094716  0.18891206     1.93200
Cr1055     Cr  0.59182562  0.86230500  0.15719804     1.39100
O1056       O  0.56866587  0.85078057  0.16824635    -1.23400
O1057       O  0.84733457  0.86899455  0.37897114    -0.85600
O1058       O  0.82344132  0.83940743  0.35476317    -0.82700
C1059       C  0.80993086  0.82443004  0.35224501     0.97800
O1060       O  0.79080427  0.82781890  0.35790435    -0.82700
O1061       O  0.80146599  0.81449467  0.39713215    -0.85300
C1062       C  0.81004213  0.81491260  0.41515593     1.02400
O1063       O  0.80933848  0.83163036  0.42658580    -0.78100
O1064       O  0.84357257  0.85095072  0.40879709    -0.78300
C1065       C  0.85569589  0.85882359  0.39488228     1.02300
O1066       O  0.80930178  0.89826683  0.37843292    -0.85600
O1067       O  0.78591274  0.87071792  0.35151294    -0.82700
C1068       C  0.76691008  0.86959806  0.35963254     0.97900
O1069       O  0.76415080  0.85989961  0.37698017    -0.82700
O1070       O  0.77034576  0.84324069  0.41622464    -0.85300
C1071       C  0.77062458  0.86159912  0.42458626     1.02300
O1072       O  0.78734197  0.87263500  0.42423682    -0.78100
O1073       O  0.82265684  0.89238722  0.41037058    -0.78300
C1074       C  0.81472179  0.90527806  0.39675724     1.02300
Cr1075     Cr  0.81580712  0.86853539  0.36711580     1.93700
Cr1076     Cr  0.78322327  0.83763584  0.38729678     1.93200
Cr1077     Cr  0.81498393  0.86147620  0.41572042     1.39100
O1078       O  0.80477455  0.85611547  0.38995281    -1.23400
O1079       O  0.89380770  0.66775171  0.33570928    -0.85600
O1080       O  0.90659620  0.68642900  0.29877406    -0.82700
C1081       C  0.90711419  0.69799803  0.28235739     0.97800
O1082       O  0.90031560  0.71703682  0.28298422    -0.82700
O1083       O  0.85994510  0.70412573  0.27771054    -0.85300
C1084       C  0.84264222  0.69453782  0.28087517     1.02400
O1085       O  0.83544463  0.69222209  0.30011080    -0.78100
O1086       O  0.86138553  0.66313351  0.32317552    -0.78300
C1087       C  0.87934649  0.65526861  0.32900377     1.02300
O1088       O  0.89544536  0.70879962  0.35562893    -0.85600
O1089       O  0.91324546  0.72667554  0.32033786    -0.82700
C1090       C  0.90347591  0.74439924  0.32179870     0.97900
O1091       O  0.88451278  0.74619071  0.31563463    -0.82700
O1092       O  0.84379289  0.73605370  0.30555775    -0.85300
C1093       C  0.83801014  0.73870847  0.32463807     1.02300
O1094       O  0.84022673  0.72317547  0.33762997    -0.78100
O1095       O  0.86466909  0.69234499  0.36039575    -0.78300
C1096       C  0.88182197  0.70085722  0.36812531     1.02300
Cr1097     Cr  0.90047650  0.69795581  0.32688617     1.93700
Cr1098     Cr  0.87234622  0.72449727  0.29713242     1.93200
Cr1099     Cr  0.85159468  0.69357519  0.32955242     1.39100
O1100       O  0.87459909  0.70509012  0.31794824    -1.23400
O1101       O  0.84087787  0.60595416  0.15021064    -0.85600
O1102       O  0.82046229  0.59435721  0.18643883    -0.82700
C1103       C  0.80822626  0.59576306  0.20225788     0.97800
O1104       O  0.78868311  0.60001012  0.19940104    -0.82700
O1105       O  0.80013075  0.64071862  0.20443611    -0.85300
C1106       C  0.80968649  0.65797439  0.20117703     1.02400
O1107       O  0.81259773  0.66469268  0.18184250    -0.78100
O1108       O  0.84288636  0.63907749  0.16104170    -0.78300
C1109       C  0.85205985  0.62127588  0.15719947     1.02300
O1110       O  0.80114756  0.60208512  0.12734888    -0.85600
O1111       O  0.78119256  0.58552287  0.16220623    -0.82700
C1112       C  0.76346911  0.59513584  0.15927441     0.97900
O1113       O  0.76083612  0.61394091  0.16536346    -0.82700
O1114       O  0.76873864  0.65505631  0.17497472    -0.85300
C1115       C  0.76680765  0.66087647  0.15579955     1.02300
O1116       O  0.78279653  0.65851916  0.14341683    -0.78100
O1117       O  0.81458260  0.63428474  0.12238953    -0.78300
C1118       C  0.80722714  0.61660649  0.11474824     1.02300
Cr1119     Cr  0.81018775  0.59876173  0.15721504     1.93700
Cr1120     Cr  0.78102951  0.62718098  0.18448606     1.93200
Cr1121     Cr  0.81247830  0.64785126  0.15285968     1.39100
O1122       O  0.80138216  0.62480186  0.16458780    -1.23400
O1123       O  0.61275916  0.68553256  0.06780709    -0.85600
O1124       O  0.63488666  0.72062731  0.05620376    -0.82700
C1125       C  0.64737104  0.73627451  0.05636690     0.97800
O1126       O  0.66548192  0.73486806  0.06522642    -0.82700
O1127       O  0.64790378  0.73971873  0.10425378    -0.85300
C1128       C  0.63779150  0.73644872  0.12121890     1.02400
O1129       O  0.63567172  0.71709214  0.12829345    -0.78100
O1130       O  0.60760952  0.69434120  0.10140010    -0.78300
C1131       C  0.60009841  0.69046978  0.08289361     1.02300
O1132       O  0.65270840  0.66197486  0.06786773    -0.85600
O1133       O  0.67476848  0.69609197  0.05323017    -0.82700
C1134       C  0.69137851  0.69431186  0.06495283     0.97900
O1135       O  0.69194821  0.70186721  0.08337537    -0.82700
O1136       O  0.67876228  0.71146667  0.12289686    -0.85300
C1137       C  0.68185353  0.69210277  0.12762029     1.02300
O1138       O  0.66671239  0.67910894  0.12398192    -0.78100
O1139       O  0.63684307  0.65720826  0.09884342    -0.78300
C1140       C  0.64538024  0.64950685  0.08182846     1.02300
Cr1141     Cr  0.64423287  0.69173804  0.06316813     1.93700
Cr1142     Cr  0.66956400  0.72041889  0.09360011     1.93200
Cr1143     Cr  0.63763145  0.68780454  0.11190902     1.39100
O1144       O  0.65012608  0.69982707  0.08959391    -1.23400
O1145       O  0.57235969  0.04934272  0.18388520    -0.85600
O1146       O  0.59506795  0.03416261  0.21668156    -0.82700
C1147       C  0.59050891  0.04881250  0.22974010     0.97800
O1148       O  0.57212704  0.04993922  0.23803211    -0.82700
O1149       O  0.52901407  0.04338855  0.24714397    -0.85300
C1150       C  0.51857228  0.05659053  0.23592767     1.02400
O1151       O  0.51965368  0.05572192  0.21564505    -0.78100
O1152       O  0.53804433  0.04782732  0.17589805    -0.78300
C1153       C  0.55619620  0.05750973  0.17515708     1.02300
O1154       O  0.56022557  0.00703806  0.17124980    -0.85600
O1155       O  0.57956037  0.99211971  0.20718562    -0.82700
C1156       C  0.58559097  0.99101902  0.22621685     0.97900
O1157       O  0.57931423  0.00449851  0.23997284    -0.82700
O1158       O  0.53562311  0.99922244  0.24388884    -0.85300
C1159       C  0.51644043  0.99917297  0.23745683     1.02300
O1160       O  0.51024628  0.01095676  0.22197634    -0.78100
O1161       O  0.52934086  0.99964386  0.18464839    -0.78300
C1162       C  0.54566595  0.99349178  0.17433259     1.02300
Cr1163     Cr  0.57483893  0.02085255  0.19586610     1.93700
Cr1164     Cr  0.55400169  0.02434404  0.24008230     1.93200
Cr1165     Cr  0.52610605  0.02825819  0.19977001     1.39100
O1166       O  0.55138992  0.02456154  0.21194167    -1.23400
O1167       O  0.56379958  0.20485824  0.97262925    -0.85600
O1168       O  0.58447404  0.24009555  0.95674540    -0.82700
C1169       C  0.58948264  0.25941914  0.95459664     0.97800
O1170       O  0.58349439  0.27344446  0.96793943    -0.82700
O1171       O  0.54037988  0.27894105  0.96181525    -0.85300
C1172       C  0.52136143  0.27232945  0.95994288     1.02400
O1173       O  0.51437215  0.25683329  0.97119259    -0.78100
O1174       O  0.53396064  0.21879948  0.96259312    -0.78300
C1175       C  0.55043095  0.20794623  0.95794244     1.02300
O1176       O  0.57398314  0.21910059  0.01467901    -0.85600
O1177       O  0.59863106  0.25030418  0.99832256    -0.82700
C1178       C  0.59463774  0.26382211  0.01257958     0.97900
O1179       O  0.57642992  0.27263221  0.01363103    -0.82700
O1180       O  0.53345470  0.28271775  0.00622971    -0.85300
C1181       C  0.52064216  0.27207874  0.01763448     1.02300
O1182       O  0.52029307  0.25179308  0.01638492    -0.78100
O1183       O  0.53953793  0.21185558  0.01203220    -0.78300
C1184       C  0.55725565  0.21123028  0.02266929     1.02300
Cr1185     Cr  0.57815295  0.22978473  0.98573110     1.93700
Cr1186     Cr  0.55830174  0.27467245  0.98760266     1.93200
Cr1187     Cr  0.52902641  0.23498624  0.99034977     1.39100
O1188       O  0.55484347  0.24660520  0.98800175    -1.23400
O1189       O  0.46313197  0.35153996  0.07515626    -0.85600
O1190       O  0.44568849  0.31707097  0.09498580    -0.82700
C1191       C  0.44254464  0.29790307  0.09981356     0.97800
O1192       O  0.45424403  0.28306526  0.09257461    -0.82700
O1193       O  0.44637612  0.28155958  0.04994329    -0.85300
C1194       C  0.44607854  0.28783344  0.03085585     1.02400
O1195       O  0.45963786  0.30146866  0.02407805    -0.78100
O1196       O  0.45214478  0.33924712  0.04501706    -0.78300
C1197       C  0.44802728  0.34948256  0.06197094     1.02300
O1198       O  0.50487181  0.33442116  0.08467264    -0.85600
O1199       O  0.48716563  0.30294596  0.10785877    -0.82700
C1200       C  0.49970844  0.28799845  0.10273634     0.97900
O1201       O  0.49924165  0.28002430  0.08425818    -0.82700
O1202       O  0.49095312  0.27350641  0.04155596    -0.85300
C1203       C  0.50512623  0.28387839  0.03151668     1.02300
O1204       O  0.50522351  0.30420505  0.03225553    -0.78100
O1205       O  0.50140957  0.34407722  0.05105507    -0.78300
C1206       C  0.51255164  0.34323882  0.06834873     1.02300
Cr1207     Cr  0.47524484  0.32547339  0.08876175     1.93700
Cr1208     Cr  0.47297033  0.28166641  0.06694813     1.93200
Cr1209     Cr  0.47934206  0.32201729  0.03983544     1.39100
O1210       O  0.47604556  0.30964644  0.06500503    -1.23400
O1211       O  0.49267693  0.11501200  0.31534192    -0.85600
O1212       O  0.51088380  0.13448996  0.28025598    -0.82700
C1213       C  0.51371884  0.13834337  0.26074604     0.97800
O1214       O  0.49958761  0.13414536  0.24679787    -0.82700
O1215       O  0.50308810  0.09118789  0.24006844    -0.85300
C1216       C  0.50430241  0.07224698  0.24699062     1.02400
O1217       O  0.49315503  0.06626249  0.26309015    -0.78100
O1218       O  0.50282292  0.08537065  0.30139459    -0.78300
C1219       C  0.50724968  0.10140324  0.31282146     1.02300
O1220       O  0.45172262  0.12782232  0.29991968    -0.85600
O1221       O  0.47042289  0.15168850  0.26910251    -0.82700
C1222       C  0.45567205  0.14818584  0.25586666     0.97900
O1223       O  0.45350724  0.12993263  0.24768588    -0.82700
O1224       O  0.45853210  0.08735072  0.23767606    -0.85300
C1225       C  0.44585314  0.07648641  0.24881086     1.02300
O1226       O  0.44763855  0.07578405  0.26895999    -0.78100
O1227       O  0.45405374  0.09366837  0.30829608    -0.78300
C1228       C  0.44352153  0.11141976  0.30821784     1.02300
Cr1229     Cr  0.48129720  0.13039817  0.29004915     1.93700
Cr1230     Cr  0.47853116  0.11063568  0.24528606     1.93200
Cr1231     Cr  0.47475445  0.08196307  0.28514079     1.39100
O1232       O  0.47828440  0.10732169  0.27334643    -1.23400
O1233       O  0.61206889  0.35517270  0.09880915    -0.85600
O1234       O  0.64088558  0.33410605  0.12590748    -0.82700
C1235       C  0.64394954  0.31478133  0.11939112     0.97800
O1236       O  0.65436826  0.31130019  0.10270467    -0.82700
O1237       O  0.66945237  0.31621592  0.06311555    -0.85300
C1238       C  0.65075597  0.31434878  0.05565855     1.02400
O1239       O  0.63826428  0.33007714  0.05495550    -0.78100
O1240       O  0.61649399  0.36585262  0.06572158    -0.78300
C1241       C  0.60418182  0.35988573  0.08065237     1.02300
O1242       O  0.63949212  0.39315631  0.09538526    -0.85600
O1243       O  0.67039195  0.37247676  0.12075610    -0.82700
C1244       C  0.68619000  0.36019151  0.12450298     0.97900
O1245       O  0.68450113  0.34077494  0.11958384    -0.82700
O1246       O  0.69610283  0.35018556  0.07937641    -0.85300
C1247       C  0.69461967  0.35623494  0.06042415     1.02300
O1248       O  0.67748780  0.35388603  0.04974399    -0.78100
O1249       O  0.65625825  0.38895062  0.06480233    -0.78300
C1250       C  0.64789162  0.40116096  0.07842431     1.02300
Cr1251     Cr  0.64167238  0.36293873  0.10906738     1.93700
Cr1252     Cr  0.67464089  0.33120213  0.09085290     1.93200
Cr1253     Cr  0.64769437  0.35905086  0.06061818     1.39100
O1254       O  0.65440275  0.35120174  0.08696006    -1.23400
O1255       O  0.61002157  0.10811690  0.33591197    -0.85600
O1256       O  0.62989505  0.09491889  0.29965880    -0.82700
C1257       C  0.64239328  0.09407278  0.28397664     0.97800
O1258       O  0.66137820  0.10094436  0.28542545    -0.82700
O1259       O  0.64836845  0.14086011  0.27858823    -0.85300
C1260       C  0.63777964  0.15775133  0.28046223     1.02400
O1261       O  0.63449749  0.16560939  0.29930392    -0.78100
O1262       O  0.60542452  0.14005581  0.32236138    -0.78300
C1263       C  0.59763268  0.12229619  0.32841791     1.02300
O1264       O  0.65055145  0.10707791  0.35702376    -0.85600
O1265       O  0.66937177  0.08880967  0.32269454    -0.82700
C1266       C  0.68690305  0.09860537  0.32527643     0.97900
O1267       O  0.68913795  0.11744920  0.31898535    -0.82700
O1268       O  0.67926754  0.15788132  0.30718972    -0.85300
C1269       C  0.68057960  0.16418894  0.32621840     1.02300
O1270       O  0.66434603  0.16194899  0.33818607    -0.78100
O1271       O  0.63404463  0.13800160  0.36074033    -0.78300
C1272       C  0.64284742  0.12119780  0.36906459     1.02300
Cr1273     Cr  0.64046682  0.10152090  0.32809237     1.93700
Cr1274     Cr  0.66812167  0.12913634  0.29913123     1.93200
Cr1275     Cr  0.63543134  0.15025008  0.32942485     1.39100
O1276       O  0.64774154  0.12719942  0.31895699    -1.23400
O1277       O  0.58867328  0.19457720  0.12170764    -0.85600
O1278       O  0.61415515  0.21713600  0.15087073    -0.82700
C1279       C  0.60594041  0.23601925  0.15225152     0.97800
O1280       O  0.58802676  0.23838002  0.16085651    -0.82700
O1281       O  0.54848991  0.23152790  0.17628112    -0.85300
C1282       C  0.54137447  0.23216627  0.15746077     1.02400
O1283       O  0.54153005  0.21582462  0.14605440    -0.78100
O1284       O  0.55606842  0.18179841  0.12505210    -0.78300
C1285       C  0.57088403  0.18920699  0.11330234     1.02300
O1286       O  0.58740826  0.15634231  0.14925285    -0.85600
O1287       O  0.60990138  0.17909748  0.18070738    -0.82700
C1288       C  0.61212771  0.19208248  0.19611433     0.97900
O1289       O  0.60660187  0.21128688  0.19312833    -0.82700
O1290       O  0.56693811  0.20069272  0.20465512    -0.85300
C1291       C  0.54953806  0.19103821  0.20311168     1.02300
O1292       O  0.53839959  0.19153700  0.18605280    -0.78100
O1293       O  0.55604010  0.15871339  0.16494317    -0.78300
C1294       C  0.57066019  0.14743433  0.15714790     1.02300
Cr1295     Cr  0.59878614  0.18744872  0.15146621     1.93700
Cr1296     Cr  0.57733524  0.21896987  0.18231505     1.93200
Cr1297     Cr  0.54972151  0.18781073  0.15616216     1.39100
O1298       O  0.57533413  0.19781611  0.16319801    -1.23400
O1299       O  0.86256739  0.39956849  0.33402570    -0.85600
O1300       O  0.83783557  0.37701295  0.30383007    -0.82700
C1301       C  0.83520585  0.36415262  0.28834380     0.97800
O1302       O  0.84057603  0.34490290  0.29121746    -0.82700
O1303       O  0.88006066  0.35563537  0.27833626    -0.85300
C1304       C  0.89822699  0.36390990  0.27916031     1.02400
O1305       O  0.90983643  0.36238995  0.29576060    -0.78100
O1306       O  0.89298523  0.39644720  0.31666049    -0.78300
C1307       C  0.87893705  0.40822978  0.32494412     1.02300
O1308       O  0.86207691  0.36108080  0.36234549    -0.85600
O1309       O  0.83479103  0.33858039  0.33444189    -0.82700
C1310       C  0.84273202  0.31955883  0.33257064     0.97900
O1311       O  0.85970183  0.31690066  0.32216299    -0.82700
O1312       O  0.89894002  0.32356439  0.30563772    -0.85300
C1313       C  0.90677739  0.32258834  0.32418975     1.02300
O1314       O  0.90740099  0.33888504  0.33574081    -0.78100
O1315       O  0.89438078  0.37373926  0.35680196    -0.78300
C1316       C  0.88058755  0.36599140  0.36948686     1.02300
Cr1317     Cr  0.85048415  0.36836730  0.33277805     1.93700
Cr1318     Cr  0.87008259  0.33675032  0.30068314     1.93200
Cr1319     Cr  0.89933371  0.36711988  0.32572715     1.39100
O1320       O  0.87321116  0.35755895  0.31996031    -1.23400
O1321       O  0.83862345  0.20380306  0.41708134    -0.85600
O1322       O  0.80326749  0.22331028  0.43444394    -0.82700
C1323       C  0.80488348  0.24117255  0.42487748     0.97800
O1324       O  0.79838900  0.24329893  0.40605909    -0.82700
O1325       O  0.78892438  0.23410639  0.36504693    -0.85300
C1326       C  0.80830486  0.23591678  0.35972792     1.02400
O1327       O  0.82045252  0.21971786  0.36196162    -0.78100
O1328       O  0.84201985  0.18858265  0.38552188    -0.78300
C1329       C  0.85049993  0.19678192  0.40237094     1.02300
O1330       O  0.81632599  0.16362285  0.41490080    -0.85600
O1331       O  0.78023178  0.18346326  0.42735885    -0.82700
C1332       C  0.76363348  0.19467336  0.42555497     0.97900
O1333       O  0.76515923  0.21415415  0.42047155    -0.82700
O1334       O  0.75991084  0.20237908  0.38000468    -0.85300
C1335       C  0.76288050  0.19231891  0.36299598     1.02300
O1336       O  0.78212703  0.18977102  0.35592259    -0.78100
O1337       O  0.80391465  0.16022036  0.38232468    -0.78300
C1338       C  0.80908857  0.15176571  0.40017655     1.02300
Cr1339     Cr  0.80888192  0.19429516  0.42164492     1.93700
Cr1340     Cr  0.77969509  0.22207653  0.39314653     1.93200
Cr1341     Cr  0.81135180  0.19039769  0.37268016     1.39100
O1342       O  0.80014817  0.20209904  0.39566178    -1.23400
O1343       O  0.84667909  0.41864296  0.15514513    -0.85600
O1344       O  0.82280066  0.39592790  0.18647888    -0.82700
C1345       C  0.81032389  0.39614943  0.20263910     0.97800
O1346       O  0.79208795  0.40461499  0.20084852    -0.82700
O1347       O  0.80142764  0.44691007  0.20356884    -0.85300
C1348       C  0.80652469  0.46560392  0.19841089     1.02400
O1349       O  0.80447920  0.47171265  0.17927888    -0.78100
O1350       O  0.84140566  0.45179101  0.16624745    -0.78300
C1351       C  0.85418587  0.43674057  0.16181653     1.02300
O1352       O  0.80905416  0.41276375  0.12443796    -0.85600
O1353       O  0.78611572  0.38963471  0.15461009    -0.82700
C1354       C  0.76691744  0.39701048  0.15683062     0.97900
O1355       O  0.76392534  0.41413038  0.16667072    -0.82700
O1356       O  0.76879476  0.45575915  0.17166996    -0.85300
C1357       C  0.76776312  0.45819831  0.15167557     1.02300
O1358       O  0.78452387  0.45759620  0.14056277    -0.78100
O1359       O  0.82324046  0.44430753  0.12557701    -0.78300
C1360       C  0.81462367  0.42976530  0.11474166     1.02300
Cr1361     Cr  0.81556756  0.40563597  0.15583578     1.93700
Cr1362     Cr  0.78334455  0.43030024  0.18430466     1.93200
Cr1363     Cr  0.81268352  0.45456405  0.15381270     1.39100
O1364       O  0.80417134  0.42979295  0.16482519    -1.23400
O1365       O  0.15538303  0.61479046  0.00726422    -0.85600
O1366       O  0.19280593  0.63633902  0.01685087    -0.82700
C1367       C  0.21190520  0.64268331  0.01525075     0.97800
O1368       O  0.22397874  0.63586992  0.00060769    -0.82700
O1369       O  0.23038030  0.59335608  0.01049537    -0.85300
C1370       C  0.22443175  0.57435547  0.01410390     1.02400
O1371       O  0.20843947  0.56626190  0.00421963    -0.78100
O1372       O  0.17057150  0.58483107  0.01526591    -0.78300
C1373       C  0.15974669  0.60092671  0.02116609     1.02300
O1374       O  0.16381618  0.62297313  0.96257992    -0.85600
O1375       O  0.19662357  0.64790573  0.97286763    -0.82700
C1376       C  0.20884594  0.64312351  0.95759897     0.97900
O1377       O  0.21789608  0.62501705  0.95689417    -0.82700
O1378       O  0.23001701  0.58332634  0.96680151    -0.85300
C1379       C  0.21866965  0.57037472  0.95645196     1.02300
O1380       O  0.19857012  0.57000917  0.95905769    -0.78100
O1381       O  0.15956443  0.58820481  0.96585318    -0.78300
C1382       C  0.15746680  0.60553671  0.95486757     1.02300
Cr1383     Cr  0.17835036  0.62837647  0.98980852     1.93700
Cr1384     Cr  0.22329188  0.60916537  0.98380038     1.93200
Cr1385     Cr  0.18435688  0.57930897  0.98627868     1.39100
O1386       O  0.19534426  0.60533876  0.98656474    -1.23400
O1387       O  0.95281179  0.62557618  0.18673060    -0.85600
O1388       O  0.96957935  0.65035991  0.21676940    -0.82700
C1389       C  0.95608918  0.64579870  0.23109971     0.97800
O1390       O  0.95692333  0.62805583  0.24070362    -0.82700
O1391       O  0.96506816  0.58602903  0.25129799    -0.85300
C1392       C  0.95050703  0.57646253  0.24119383     1.02400
O1393       O  0.95064895  0.57611449  0.22094386    -0.78100
O1394       O  0.95467462  0.59127359  0.18021066    -0.78300
C1395       C  0.94393113  0.60891213  0.18009987     1.02300
O1396       O  0.99508454  0.61381166  0.17148493    -0.85600
O1397       O  0.01164104  0.63540874  0.20484201    -0.82700
C1398       C  0.01350621  0.64254263  0.22332930     0.97900
O1399       O  0.00179974  0.63602744  0.23849276    -0.82700
O1400       O  0.00915990  0.59294774  0.24487294    -0.85300
C1401       C  0.00924348  0.57348604  0.23962771     1.02300
O1402       O  0.99642670  0.56651152  0.22523137    -0.78100
O1403       O  0.00456821  0.58392577  0.18585317    -0.78300
C1404       C  0.00952030  0.59994923  0.17445097     1.02300
Cr1405     Cr  0.98230143  0.62941144  0.19611687     1.93700
Cr1406     Cr  0.98312727  0.61062481  0.24166593     1.93200
Cr1407     Cr  0.97693793  0.58109921  0.20316419     1.39100
O1408       O  0.98087405  0.60682150  0.21370441    -1.23400
O1409       O  0.06483372  0.51431281  0.31880602    -0.85600
O1410       O  0.08505460  0.49634140  0.28494947    -0.82700
C1411       C  0.08906164  0.49245594  0.26577496     0.97800
O1412       O  0.08278819  0.50471503  0.25077743    -0.82700
O1413       O  0.03916865  0.50038570  0.24638226    -0.85300
C1414       C  0.01992614  0.50123831  0.25245624     1.02400
O1415       O  0.01424130  0.51371193  0.26746312    -0.78100
O1416       O  0.03473761  0.50428205  0.30522138    -0.78300
C1417       C  0.05131252  0.49966675  0.31602568     1.02300
O1418       O  0.07634169  0.55555202  0.30213314    -0.85600
O1419       O  0.10004769  0.53697331  0.27119007    -0.82700
C1420       C  0.09546475  0.55020127  0.25663990     0.97900
O1421       O  0.07701952  0.55052424  0.24839066    -0.82700
O1422       O  0.03382705  0.54463856  0.24059679    -0.85300
C1423       C  0.02351783  0.55835694  0.25120752     1.02300
O1424       O  0.02442716  0.55834728  0.27149643    -0.78100
O1425       O  0.04255009  0.55218474  0.31152093    -0.78300
C1426       C  0.05989607  0.56312335  0.31086658     1.02300
Cr1427     Cr  0.07967967  0.52592243  0.29316565     1.93700
Cr1428     Cr  0.05829183  0.52530549  0.24870304     1.93200
Cr1429     Cr  0.03074583  0.53179636  0.28868035     1.39100
O1430       O  0.05602665  0.52765791  0.27672487    -1.23400
O1431       O  0.30045039  0.54587306  0.07593707    -0.85600
O1432       O  0.26703241  0.56498233  0.09639196    -0.82700
C1433       C  0.24792807  0.56897308  0.10110617     0.97800
O1434       O  0.23255426  0.55842497  0.09327590    -0.82700
O1435       O  0.23084750  0.56349520  0.04969582    -0.85300
C1436       C  0.23589430  0.56134743  0.03036289     1.02400
O1437       O  0.24940618  0.54705821  0.02483988    -0.78100
O1438       O  0.28783185  0.55570752  0.04544670    -0.78300
C1439       C  0.29801526  0.56050924  0.06229502     1.02300
O1440       O  0.28282919  0.50501973  0.08804317    -0.85600
O1441       O  0.25219780  0.52460615  0.11059249    -0.82700
C1442       C  0.23565678  0.51388260  0.10641969     0.97900
O1443       O  0.22725224  0.51382724  0.08811186    -0.82700
O1444       O  0.22157086  0.51900128  0.04501640    -0.85300
C1445       C  0.23169137  0.50391799  0.03621906     1.02300
O1446       O  0.25203212  0.50297258  0.03724299    -0.78100
O1447       O  0.29283679  0.50700694  0.05459214    -0.78300
C1448       C  0.29218177  0.49668179  0.07240907     1.02300
Cr1449     Cr  0.27458837  0.53505243  0.09082043     1.93700
Cr1450     Cr  0.23028421  0.53839133  0.06889444     1.93200
Cr1451     Cr  0.27033236  0.52860664  0.04226895     1.39100
O1452       O  0.25826262  0.53383384  0.06726542    -1.23400
O1453       O  0.30114316  0.66388262  0.07305792    -0.85600
O1454       O  0.28292583  0.69914855  0.05541852    -0.82700
C1455       C  0.26477804  0.69617935  0.06400701     0.97800
O1456       O  0.26164375  0.70156354  0.08297947    -0.82700
O1457       O  0.26893986  0.71141438  0.12451625    -0.85300
C1458       C  0.26706461  0.69228048  0.13037761     1.02400
O1459       O  0.28321290  0.67995292  0.12880215    -0.78100
O1460       O  0.31494555  0.65848952  0.10511307    -0.78300
C1461       C  0.30735693  0.65109667  0.08739235     1.02300
O1462       O  0.34135342  0.68517799  0.07774991    -0.85600
O1463       O  0.32223872  0.72204590  0.06562260    -0.82700
C1464       C  0.31017321  0.73810076  0.06643646     0.97900
O1465       O  0.29046406  0.73575493  0.07025742    -0.82700
O1466       O  0.30038367  0.74079028  0.11121563    -0.85300
C1467       C  0.31033969  0.73760898  0.12831179     1.02300
O1468       O  0.31333055  0.71829521  0.13519682    -0.78100
O1469       O  0.34356754  0.69674200  0.11054430    -0.78300
C1470       C  0.35262366  0.69235270  0.09291164     1.02300
Cr1471     Cr  0.31121166  0.69321882  0.06971600     1.93700
Cr1472     Cr  0.28171552  0.72078418  0.09705451     1.93200
Cr1473     Cr  0.31298080  0.68907969  0.11867584     1.39100
O1474       O  0.30214156  0.70084722  0.09541982    -1.23400
O1475       O  0.05656011  0.68954068  0.35412583    -0.85600
O1476       O  0.04375116  0.72421471  0.33218181    -0.82700
C1477       C  0.04551385  0.74034869  0.32042702     0.97800
O1478       O  0.05200811  0.73837768  0.30150780    -0.82700
O1479       O  0.09130285  0.74393599  0.31668694    -0.85300
C1480       C  0.10843141  0.74107547  0.32659704     1.02400
O1481       O  0.11611120  0.72207613  0.32875572    -0.78100
O1482       O  0.08951443  0.70137269  0.35793813    -0.78300
C1483       C  0.07154404  0.69638289  0.36605444     1.02300
O1484       O  0.05614034  0.66574776  0.31477922    -0.85600
O1485       O  0.03959295  0.69971610  0.29280381    -0.82700
C1486       C  0.05067448  0.69866293  0.27579696     0.97900
O1487       O  0.06931360  0.70562592  0.27487028    -0.82700
O1488       O  0.10920663  0.71488776  0.28607225    -0.85300
C1489       C  0.11371676  0.69530677  0.28408872     1.02300
O1490       O  0.11075070  0.68325537  0.30012109    -0.78100
O1491       O  0.08702907  0.66292835  0.33165925    -0.78300
C1492       C  0.07042611  0.65427357  0.32328027     1.02300
Cr1493     Cr  0.05069339  0.69548220  0.32285875     1.93700
Cr1494     Cr  0.08021656  0.72428001  0.29619516     1.93200
Cr1495     Cr  0.09968322  0.69314585  0.32871431     1.39100
O1496       O  0.07689828  0.70410784  0.31614071    -1.23400
O1497       O  0.10807496  0.63700733  0.15909626    -0.85600
O1498       O  0.13546357  0.66463003  0.18196330    -0.82700
C1499       C  0.13720538  0.65711775  0.20118634     0.97800
O1500       O  0.14703029  0.63982248  0.20418903    -0.82700
O1501       O  0.16623789  0.60128622  0.19890452    -0.85300
C1502       C  0.14813418  0.59255357  0.19996174     1.02400
O1503       O  0.13630926  0.59173678  0.18379643    -0.78100
O1504       O  0.11393854  0.60377323  0.14925433    -0.78300
C1505       C  0.10099589  0.61829504  0.15534580     1.02300
O1506       O  0.13736057  0.63592075  0.12140321    -0.85600
O1507       O  0.16666781  0.66096160  0.14437926    -0.82700
C1508       C  0.18143130  0.66445729  0.15789378     0.97900
O1509       O  0.17780830  0.65968697  0.17710129    -0.82700
O1510       O  0.19273865  0.62074042  0.16730942    -0.85300
C1511       C  0.19299623  0.60257058  0.15912339     1.02300
O1512       O  0.17663155  0.59042192  0.15968676    -0.78100
O1513       O  0.15434518  0.60541667  0.12566339    -0.78300
C1514       C  0.14703281  0.61960794  0.11336236     1.02300
Cr1515     Cr  0.13775522  0.64838345  0.15247801     1.93700
Cr1516     Cr  0.16956957  0.63005648  0.18534057     1.93200
Cr1517     Cr  0.14571729  0.59967886  0.15527197     1.39100
O1518       O  0.15074910  0.62604183  0.16415432    -1.23400
O1519       O  0.31638743  0.92150041  0.36431413    -0.85600
O1520       O  0.28692266  0.89695398  0.34117042    -0.82700
C1521       C  0.27167905  0.89431681  0.32798224     0.97800
O1522       O  0.27439603  0.90024786  0.30898043    -0.82700
O1523       O  0.26219373  0.94028604  0.32009229    -0.85300
C1524       C  0.26365975  0.95884970  0.32731225     1.02400
O1525       O  0.28070512  0.96959520  0.32523303    -0.78100
O1526       O  0.30041494  0.95266319  0.36005657    -0.78300
C1527       C  0.30730123  0.93818471  0.37232194     1.02300
O1528       O  0.34609838  0.91990819  0.32680776    -0.85600
O1529       O  0.31798484  0.89345668  0.30356617    -0.82700
C1530       C  0.31575631  0.90105051  0.28443436     0.97900
O1531       O  0.30559382  0.91819615  0.28165517    -0.82700
O1532       O  0.28972560  0.95787338  0.28770817    -0.85300
C1533       C  0.30834180  0.96553948  0.28654861     1.02300
O1534       O  0.32069831  0.96500390  0.30239836    -0.78100
O1535       O  0.34080169  0.95239174  0.33868536    -0.78300
C1536       C  0.35343273  0.93821586  0.33173695     1.02300
Cr1537     Cr  0.31604473  0.90920386  0.33322878     1.93700
Cr1538     Cr  0.28432134  0.92937533  0.30118581     1.93200
Cr1539     Cr  0.31018813  0.95807602  0.33086886     1.39100
O1540       O  0.30375746  0.93206198  0.32194166    -1.23400
O1541       O  0.39795808  0.89554805  0.17346827    -0.85600
O1542       O  0.41578294  0.86217612  0.19489827    -0.82700
C1543       C  0.40409761  0.86263905  0.21145847     0.97800
O1544       O  0.38664888  0.85307988  0.21232242    -0.82700
O1545       O  0.34735605  0.84312400  0.20017172    -0.85300
C1546       C  0.34202881  0.86250560  0.20242127     1.02400
O1547       O  0.34452928  0.87496514  0.18662299    -0.78100
O1548       O  0.36748550  0.89763428  0.15600007    -0.78300
C1549       C  0.38346035  0.90685332  0.16513417     1.02300
O1550       O  0.39945832  0.87232020  0.13360361    -0.85600
O1551       O  0.41478647  0.83809873  0.15528258    -0.82700
C1552       C  0.41565434  0.82208684  0.16735068     0.97900
O1553       O  0.40563622  0.82171670  0.18484314    -0.82700
O1554       O  0.36621006  0.81510482  0.16858883    -0.85300
C1555       C  0.34831966  0.81749140  0.15981933     1.02300
O1556       O  0.34065228  0.83654937  0.15736081    -0.78100
O1557       O  0.36705567  0.85940886  0.12839790    -0.78300
C1558       C  0.38519271  0.86509194  0.12104369     1.02300
Cr1559     Cr  0.40510573  0.86619080  0.16477986     1.93700
Cr1560     Cr  0.37671776  0.83479763  0.18991725     1.93200
Cr1561     Cr  0.35621495  0.86632239  0.15795885     1.39100
O1562       O  0.37935224  0.85581672  0.17059747    -1.23400
O1563       O  0.11754460  0.86967105  0.41384926    -0.85600
O1564       O  0.13907803  0.83373432  0.42452254    -0.82700
C1565       C  0.15137199  0.81785886  0.42390953     0.97800
O1566       O  0.16998590  0.81958279  0.41639771    -0.82700
O1567       O  0.15393811  0.81560049  0.37697312    -0.85300
C1568       C  0.14415081  0.81957448  0.35997116     1.02400
O1569       O  0.14171096  0.83896859  0.35340035    -0.78100
O1570       O  0.11312079  0.86033748  0.38033655    -0.78300
C1571       C  0.10522344  0.86455450  0.39857106     1.02300
O1572       O  0.15725774  0.89294578  0.41516831    -0.85600
O1573       O  0.17872448  0.85740163  0.42966577    -0.82700
C1574       C  0.19589660  0.85876840  0.41886144     0.97900
O1575       O  0.19682139  0.85277958  0.39993561    -0.82700
O1576       O  0.18453643  0.84413352  0.35985377    -0.85300
C1577       C  0.18729738  0.86352665  0.35527352     1.02300
O1578       O  0.17206297  0.87648179  0.35883210    -0.78100
O1579       O  0.14153791  0.89747001  0.38391952    -0.78300
C1580       C  0.14962537  0.90528479  0.40106982     1.02300
Cr1581     Cr  0.14873989  0.86280020  0.41896992     1.93700
Cr1582     Cr  0.17488547  0.83464765  0.38863299     1.93200
Cr1583     Cr  0.14300516  0.86748221  0.37032617     1.39100
O1584       O  0.15530060  0.85520980  0.39257290    -1.23400
O1585       O  0.39062254  0.20911398  0.00856247    -0.85600
O1586       O  0.36874708  0.24543370  0.01947602    -0.82700
C1587       C  0.36214988  0.26439818  0.01863060     0.97800
O1588       O  0.36896050  0.27724739  0.00460944    -0.82700
O1589       O  0.41224821  0.28285672  0.01399627    -0.85300
C1590       C  0.43163125  0.27700944  0.01587446     1.02400
O1591       O  0.43921790  0.26163024  0.00498649    -0.78100
O1592       O  0.42083178  0.22379818  0.01655811    -0.78300
C1593       C  0.40453507  0.21321844  0.02250505     1.02300
O1594       O  0.38170122  0.21900209  0.96441285    -0.85600
O1595       O  0.35671030  0.25120053  0.97558184    -0.82700
C1596       C  0.36176764  0.26362634  0.96051066     0.97900
O1597       O  0.37967237  0.27307625  0.96055596    -0.82700
O1598       O  0.42139948  0.28482662  0.97022579    -0.85300
C1599       C  0.43340127  0.27372846  0.95855933     1.02300
O1600       O  0.43338287  0.25349135  0.96029560    -0.78100
O1601       O  0.41636263  0.21374191  0.96759089    -0.78300
C1602       C  0.39898820  0.21231239  0.95666460     1.02300
Cr1603     Cr  0.37647690  0.23234739  0.99195807     1.93700
Cr1604     Cr  0.39570931  0.27727721  0.98744250     1.93200
Cr1605     Cr  0.42552818  0.23824825  0.98759286     1.39100
O1606       O  0.39949311  0.24930174  0.98900323    -1.23400
O1607       O  0.00132125  0.43478892  0.19225861    -0.85600
O1608       O  0.98248196  0.41321790  0.22416127    -0.82700
C1609       C  0.99595930  0.41841759  0.23820374     0.97800
O1610       O  0.99627061  0.43694372  0.24592720    -0.82700
O1611       O  0.98894887  0.47975791  0.25205773    -0.85300
C1612       C  0.00354316  0.48849692  0.24126065     1.02400
O1613       O  0.00344783  0.48731754  0.22105268    -0.78100
O1614       O  0.99904224  0.46831891  0.18195848    -0.78300
C1615       C  0.00966757  0.45063969  0.18316935     1.02300
O1616       O  0.95993568  0.44573309  0.17483746    -0.85600
O1617       O  0.94167671  0.42754733  0.20983227    -0.82700
C1618       C  0.93840293  0.42304337  0.22905589     0.97900
O1619       O  0.95057572  0.42979804  0.24380977    -0.82700
O1620       O  0.94474020  0.47292368  0.24584961    -0.85300
C1621       C  0.94495138  0.49192860  0.23923538     1.02300
O1622       O  0.95776027  0.49768883  0.22431023    -0.78100
O1623       O  0.94969122  0.47636422  0.18659221    -0.78300
C1624       C  0.94523527  0.45944139  0.17642097     1.02300
Cr1625     Cr  0.97140744  0.43221571  0.20125206     1.93700
Cr1626     Cr  0.97037756  0.45480387  0.24476061     1.93200
Cr1627     Cr  0.97710289  0.48085039  0.20375151     1.39100
O1628       O  0.97293945  0.45619676  0.21664333    -1.23400
O1629       O  0.15349706  0.04870691  0.40974747    -0.85600
O1630       O  0.19026201  0.06256267  0.39089120    -0.82700
C1631       C  0.20971297  0.06340830  0.38596752     0.97800
O1632       O  0.22305142  0.04978789  0.39280597    -0.82700
O1633       O  0.22520849  0.05833250  0.43521656    -0.85300
C1634       C  0.21835144  0.05994402  0.45402942     1.02400
O1635       O  0.20322529  0.04800842  0.46095153    -0.78100
O1636       O  0.16572101  0.05699079  0.44088963    -0.78300
C1637       C  0.15594505  0.06262660  0.42403375     1.02300
O1638       O  0.16663868  0.00557655  0.40015507    -0.85600
O1639       O  0.20012945  0.01964180  0.37835831    -0.82700
C1640       C  0.21338854  0.00539089  0.38398683     0.97900
O1641       O  0.22115888  0.00518539  0.40261044    -0.82700
O1642       O  0.22912379  0.01470516  0.44501665    -0.85300
C1643       C  0.21789815  0.00111211  0.45466871     1.02300
O1644       O  0.19764828  0.00192716  0.45334675    -0.78100
O1645       O  0.15885215  0.00771432  0.43433235    -0.78300
C1646       C  0.15910924  0.99716544  0.41672224     1.02300
Cr1647     Cr  0.17860359  0.03408277  0.39674633     1.93700
Cr1648     Cr  0.22242758  0.03186909  0.41893650     1.93200
Cr1649     Cr  0.18158697  0.02891973  0.44569961     1.39100
O1650       O  0.19415346  0.03162267  0.42069033    -1.23400
O1651       O  0.15497027  0.44130188  0.97603637    -0.85600
O1652       O  0.19169596  0.41991519  0.96716944    -0.82700
C1653       C  0.21062997  0.41336134  0.96873900     0.97800
O1654       O  0.22351594  0.42162342  0.98182468    -0.82700
O1655       O  0.22779294  0.46408116  0.96886643    -0.85300
C1656       C  0.22195328  0.48330769  0.96601589     1.02400
O1657       O  0.20649304  0.49135646  0.97670008    -0.78100
O1658       O  0.16794383  0.47235154  0.96786597    -0.78300
C1659       C  0.15794018  0.45563597  0.96218299     1.02300
O1660       O  0.16427287  0.43495406  0.02113449    -0.85600
O1661       O  0.19789019  0.41103937  0.01197352    -0.82700
C1662       C  0.21127351  0.41712277  0.02590059     0.97900
O1663       O  0.21994531  0.43531903  0.02460248    -0.82700
O1664       O  0.23074459  0.47604331  0.01158811    -0.85300
C1665       C  0.21989866  0.48831157  0.02307837     1.02300
O1666       O  0.19960090  0.48796291  0.02214930    -0.78100
O1667       O  0.16010497  0.46973129  0.01770351    -0.78300
C1668       C  0.15826439  0.45245834  0.02876736     1.02300
Cr1669     Cr  0.17837866  0.42899421  0.99403941     1.93700
Cr1670     Cr  0.22314223  0.44939145  0.99662591     1.93200
Cr1671     Cr  0.18358849  0.47837151  0.99594533     1.39100
O1672       O  0.19494749  0.45249808  0.99552657    -1.23400
O1673       O  0.37729361  0.00777206  0.18502846    -0.85600
O1674       O  0.35282918  0.02462277  0.21592153    -0.82700
C1675       C  0.35758979  0.01118009  0.23020756     0.97800
O1676       O  0.37570731  0.01136555  0.23918435    -0.82700
O1677       O  0.41818649  0.01957094  0.24931534    -0.85300
C1678       C  0.42878098  0.00591082  0.23902488     1.02400
O1679       O  0.42812505  0.00572870  0.21877559    -0.78100
O1680       O  0.41173918  0.01042718  0.17835084    -0.78300
C1681       C  0.39429824  0.99952865  0.17810622     1.02300
O1682       O  0.38833723  0.05034758  0.17018508    -0.85600
O1683       O  0.36645307  0.06646964  0.20423524    -0.82700
C1684       C  0.36069075  0.06882740  0.22327435     0.97900
O1685       O  0.36733892  0.05647911  0.23797270    -0.82700
O1686       O  0.41077290  0.06325015  0.24334136    -0.85300
C1687       C  0.43016436  0.06310673  0.23764555     1.02300
O1688       O  0.43680018  0.05076556  0.22288964    -0.78100
O1689       O  0.41867905  0.05932642  0.18412713    -0.78300
C1690       C  0.40249984  0.06443191  0.17296246     1.02300
Cr1691     Cr  0.37321091  0.03725660  0.19498150     1.93700
Cr1692     Cr  0.39301638  0.03748510  0.24021193     1.93200
Cr1693     Cr  0.42203303  0.03190357  0.20118822     1.39100
O1694       O  0.39630458  0.03569530  0.21216724    -1.23400
O1695       O  0.94994150  0.22051403  0.39686402    -0.85600
O1696       O  0.96346496  0.25231787  0.37184820    -0.82700
C1697       C  0.94917684  0.26586950  0.37647876     0.97800
O1698       O  0.94884337  0.27458296  0.39464558    -0.82700
O1699       O  0.95788923  0.28545066  0.43676824    -0.85300
C1700       C  0.94542881  0.27443842  0.44818300     1.02400
O1701       O  0.94608297  0.25427099  0.44735862    -0.78100
O1702       O  0.95345081  0.21443995  0.43129193    -0.78300
C1703       C  0.94239718  0.21320709  0.41394684     1.02300
O1704       O  0.99355243  0.20888658  0.40736935    -0.85600
O1705       O  0.00667738  0.24399985  0.38522076    -0.82700
C1706       C  0.00755614  0.26312089  0.37926414     0.97900
O1707       O  0.99362535  0.27669356  0.38496710    -0.82700
O1708       O  0.00193635  0.28246357  0.42773856    -0.85300
C1709       C  0.00281769  0.27775105  0.44733690     1.02300
O1710       O  0.99114845  0.26281077  0.45504747    -0.78100
O1711       O  0.00213158  0.22402440  0.43717140    -0.78300
C1712       C  0.00761705  0.21270855  0.42133301     1.02300
Cr1713     Cr  0.97832034  0.23256375  0.39222635     1.93700
Cr1714     Cr  0.97546025  0.27769250  0.41112607     1.93200
Cr1715     Cr  0.97352280  0.23900767  0.44092420     1.39100
O1716       O  0.97580121  0.24976107  0.41496320    -1.23400
O1717       O  0.34466820  0.35361483  0.07393922    -0.85600
O1718       O  0.30911007  0.33579309  0.05646044    -0.82700
C1719       C  0.31046549  0.31804467  0.06623797     0.97800
O1720       O  0.30436747  0.31630231  0.08516268    -0.82700
O1721       O  0.29472830  0.32654313  0.12587124    -0.85300
C1722       C  0.31392100  0.32372111  0.13155297     1.02400
O1723       O  0.32704233  0.33910631  0.12926511    -0.78100
O1724       O  0.34976659  0.36972436  0.10473908    -0.78300
C1725       C  0.35740740  0.36105195  0.08765137     1.02300
O1726       O  0.32428731  0.39484985  0.07580286    -0.85600
O1727       O  0.28745131  0.37635628  0.06333638    -0.82700
C1728       C  0.27086980  0.36507585  0.06388210     0.97900
O1729       O  0.27195861  0.34580033  0.06975989    -0.82700
O1730       O  0.26682305  0.35888320  0.10994156    -0.85300
C1731       C  0.26993682  0.36796515  0.12747900     1.02300
O1732       O  0.28934043  0.37005969  0.13457952    -0.78100
O1733       O  0.31161950  0.39887156  0.10807691    -0.78300
C1734       C  0.31657194  0.40693773  0.09004485     1.02300
Cr1735     Cr  0.31570552  0.36456548  0.06915519     1.93700
Cr1736     Cr  0.28607312  0.33817363  0.09748065     1.93200
Cr1737     Cr  0.31876790  0.36868762  0.11798179     1.39100
O1738       O  0.30704146  0.35728187  0.09506813    -1.23400
O1739       O  0.30111530  0.10565095  0.35800515    -0.85600
O1740       O  0.27981384  0.08966319  0.32342696    -0.82700
C1741       C  0.26274222  0.10039312  0.32611974     0.97800
O1742       O  0.26055439  0.11870529  0.31842268    -0.82700
O1743       O  0.27047134  0.15922787  0.30825284    -0.85300
C1744       C  0.26869664  0.16426467  0.32762484     1.02400
O1745       O  0.28470766  0.16134071  0.33977224    -0.78100
O1746       O  0.31525867  0.13774516  0.36147754    -0.78300
C1747       C  0.30747177  0.12064696  0.36987483     1.02300
O1748       O  0.34049880  0.10777226  0.33433532    -0.85600
O1749       O  0.31928224  0.09573642  0.29884877    -0.82700
C1750       C  0.30729029  0.09747944  0.28281428     0.97900
O1751       O  0.28797243  0.10282911  0.28520565    -0.82700
O1752       O  0.30133344  0.14311869  0.27911964    -0.85300
C1753       C  0.31152211  0.16003683  0.28233623     1.02300
O1754       O  0.31452615  0.16677735  0.30159889    -0.78100
O1755       O  0.34374469  0.14100753  0.32360580    -0.78300
C1756       C  0.35222114  0.12304576  0.32803546     1.02300
Cr1757     Cr  0.30948968  0.10145904  0.32790812     1.93700
Cr1758     Cr  0.28153714  0.13063874  0.29926153     1.93200
Cr1759     Cr  0.31372591  0.15045615  0.33082012     1.39100
O1760       O  0.30183243  0.12764201  0.31950693    -1.23400
O1761       O  0.09149297  0.36221504  0.36648049    -0.85600
O1762       O  0.11684047  0.33893764  0.33763608    -0.82700
C1763       C  0.10886724  0.32014219  0.33449586     0.97800
O1764       O  0.09207820  0.31810404  0.32366138    -0.82700
O1765       O  0.05176701  0.32528284  0.31214682    -0.85300
C1766       C  0.04633229  0.32368695  0.33149588     1.02400
O1767       O  0.04660081  0.33980209  0.34346796    -0.78100
O1768       O  0.06010345  0.37691411  0.36176580    -0.78300
C1769       C  0.07367910  0.36844876  0.37410974     1.02300
O1770       O  0.08992245  0.40042958  0.33714296    -0.85600
O1771       O  0.11367275  0.37729538  0.30729413    -0.82700
C1772       C  0.11516562  0.36522427  0.29106133     0.97900
O1773       O  0.10813306  0.34645834  0.29235099    -0.82700
O1774       O  0.06718723  0.35838552  0.28335000    -0.85300
C1775       C  0.04815624  0.36421528  0.28601343     1.02300
O1776       O  0.03911929  0.36194718  0.30391224    -0.78100
O1777       O  0.05852675  0.39679891  0.32118026    -0.78300
C1778       C  0.07339626  0.40873181  0.32778406     1.02300
Cr1779     Cr  0.10177754  0.36903720  0.33635345     1.93700
Cr1780     Cr  0.07970558  0.33868126  0.30423343     1.93200
Cr1781     Cr  0.05281806  0.36811550  0.33203295     1.39100
O1782       O  0.07840068  0.35873811  0.32435731    -1.23400
O1783       O  0.13597012  0.16678903  0.41863631    -0.85600
O1784       O  0.17116335  0.18863882  0.42994484    -0.82700
C1785       C  0.18722858  0.20059462  0.42921912     0.97800
O1786       O  0.18600998  0.21876135  0.42055213    -0.82700
O1787       O  0.19012014  0.20140078  0.38137941    -0.85300
C1788       C  0.18654302  0.19121071  0.36450504     1.02400
O1789       O  0.16714513  0.18941832  0.35747334    -0.78100
O1790       O  0.14546533  0.16130945  0.38528060    -0.78300
C1791       C  0.14158324  0.15403342  0.40389272     1.02300
O1792       O  0.11239759  0.20677432  0.41832099    -0.85600
O1793       O  0.14689087  0.22854523  0.43306318    -0.82700
C1794       C  0.14529014  0.24511229  0.42134517     0.97900
O1795       O  0.15293646  0.24561691  0.40294294    -0.82700
O1796       O  0.16160250  0.23227518  0.36332875    -0.85300
C1797       C  0.14202993  0.23525355  0.35923427     1.02300
O1798       O  0.12922302  0.21996119  0.36288607    -0.78100
O1799       O  0.10768822  0.18998705  0.38791799    -0.78300
C1800       C  0.09987929  0.19906249  0.40458721     1.02300
Cr1801     Cr  0.14227104  0.19815017  0.42312966     1.93700
Cr1802     Cr  0.17113783  0.22309383  0.39240649     1.93200
Cr1803     Cr  0.13823909  0.19107954  0.37457599     1.39100
O1804       O  0.15041658  0.20380730  0.39667701    -1.23400
O1805       O  0.11175994  0.44874349  0.15313319    -0.85600
O1806       O  0.12898817  0.46203035  0.19066770    -0.82700
C1807       C  0.14061523  0.46158368  0.20711423     0.97800
O1808       O  0.16065822  0.45917436  0.20545750    -0.82700
O1809       O  0.15578151  0.41764019  0.21132207    -0.85300
C1810       C  0.14514378  0.40084675  0.20913417     1.02400
O1811       O  0.14103006  0.39370043  0.19026960    -0.78100
O1812       O  0.11014588  0.41755635  0.16826224    -0.78300
C1813       C  0.10073636  0.43462701  0.16228584     1.02300
O1814       O  0.15195634  0.45459931  0.13306079    -0.85600
O1815       O  0.16722302  0.47483026  0.16921732    -0.82700
C1816       C  0.18599624  0.46815387  0.16587291     0.97900
O1817       O  0.19106547  0.44955521  0.17140651    -0.82700
O1818       O  0.18811313  0.40765311  0.18127855    -0.85300
C1819       C  0.18806343  0.39878447  0.16327261     1.02300
O1820       O  0.17087473  0.39868935  0.15214740    -0.78100
O1821       O  0.13907287  0.42182096  0.12961844    -0.78300
C1822       C  0.14622979  0.43930529  0.12115186     1.02300
Cr1823     Cr  0.14091207  0.45829459  0.16224391     1.93700
Cr1824     Cr  0.17238914  0.43352290  0.19069917     1.93200
Cr1825     Cr  0.14104577  0.40933033  0.16067980     1.39100
O1826       O  0.15157129  0.43331237  0.17096995    -1.23400
O1827       O  0.40074870  0.20784047  0.12729489    -0.85600
O1828       O  0.41670162  0.22930236  0.16113417    -0.82700
C1829       C  0.40523553  0.24602709  0.15925380     0.97800
O1830       O  0.38697387  0.24718187  0.16730711    -0.82700
O1831       O  0.34728905  0.23475307  0.17865151    -0.85300
C1832       C  0.34185166  0.23811084  0.15956867     1.02400
O1833       O  0.34483538  0.22317535  0.14622541    -0.78100
O1834       O  0.36900930  0.19318719  0.12308233    -0.78300
C1835       C  0.38615074  0.20139234  0.11501694     1.02300
O1836       O  0.40041512  0.16812839  0.15078955    -0.85600
O1837       O  0.41301011  0.18961014  0.18578527    -0.82700
C1838       C  0.41331026  0.20213410  0.20136014     0.97900
O1839       O  0.40558898  0.22063515  0.19963619    -0.82700
O1840       O  0.36632571  0.20389662  0.20601879    -0.85300
C1841       C  0.34893672  0.19427930  0.20329737     1.02300
O1842       O  0.34127390  0.19210644  0.18414661    -0.78100
O1843       O  0.36689797  0.16361769  0.16052882    -0.78300
C1844       C  0.38533125  0.15584208  0.15653905     1.02300
Cr1845     Cr  0.40589100  0.19921137  0.15696693     1.93700
Cr1846     Cr  0.37680414  0.22520982  0.18633615     1.93200
Cr1847     Cr  0.35675274  0.19384922  0.15426061     1.39100
O1848       O  0.37972941  0.20576999  0.16564216    -1.23400
O1849       O  0.88233630  0.72356691  0.51385553    -0.85600
O1850       O  0.86050710  0.75584511  0.49592128    -0.82700
C1851       C  0.86549256  0.76966178  0.50964041     0.97800
O1852       O  0.88396916  0.77772347  0.51016894    -0.82700
O1853       O  0.92673200  0.78525333  0.50305103    -0.85300
C1854       C  0.93698993  0.77442978  0.51671564     1.02400
O1855       O  0.93628298  0.75412646  0.51630295    -0.78100
O1856       O  0.91652942  0.71475547  0.51204555    -0.78300
C1857       C  0.89850207  0.71488139  0.52217623     1.02300
O1858       O  0.89376661  0.70762778  0.47294202    -0.85600
O1859       O  0.87498888  0.74303402  0.45481452    -0.82700
C1860       C  0.86958524  0.76221015  0.45242145     0.97900
O1861       O  0.87650787  0.77664198  0.46479469    -0.82700
O1862       O  0.91970611  0.77913577  0.45849205    -0.85300
C1863       C  0.93882996  0.77265611  0.45821891     1.02300
O1864       O  0.94517812  0.75793095  0.47101410    -0.78100
O1865       O  0.92415954  0.72007563  0.46283636    -0.78300
C1866       C  0.90729410  0.70977728  0.45831178     1.02300
Cr1867     Cr  0.87984616  0.73359488  0.48440673     1.93700
Cr1868     Cr  0.90180417  0.77751828  0.48432799     1.93200
Cr1869     Cr  0.92883035  0.73690623  0.49023896     1.39100
O1870       O  0.90374095  0.74939933  0.48651889    -1.23400
O1871       O  0.49598615  0.94485644  0.67039046    -0.85600
O1872       O  0.51550481  0.92478661  0.70395724    -0.82700
C1873       C  0.51983516  0.92094325  0.72318023     0.97800
O1874       O  0.50767264  0.92715608  0.73817233    -0.82700
O1875       O  0.51057175  0.97020367  0.74128639    -0.85300
C1876       C  0.50852339  0.98937104  0.73571843     1.02400
O1877       O  0.49499249  0.99488938  0.72140685    -0.78100
O1878       O  0.50448352  0.97550242  0.68343102    -0.78300
C1879       C  0.51003049  0.95903998  0.67316209     1.02300
O1880       O  0.45517712  0.93148822  0.68741807    -0.85600
O1881       O  0.47564037  0.90879770  0.71817896    -0.82700
C1882       C  0.46449403  0.91247472  0.73450714     0.97900
O1883       O  0.46209122  0.93107536  0.74165194    -0.82700
O1884       O  0.46609825  0.97454122  0.74847065    -0.85300
C1885       C  0.45129736  0.98362650  0.73800029     1.02300
O1886       O  0.45064784  0.98221047  0.71780369    -0.78100
O1887       O  0.45658622  0.96516910  0.67762148    -0.78300
C1888       C  0.44652966  0.94730114  0.67839696     1.02300
Cr1889     Cr  0.48531857  0.92932667  0.69596347     1.93700
Cr1890     Cr  0.48623184  0.95075083  0.74022712     1.93200
Cr1891     Cr  0.47710969  0.97773111  0.70031122     1.39100
O1892       O  0.48288498  0.95273505  0.71226468    -1.23400
O1893       O  0.66916135  0.93043687  0.46822039    -0.85600
O1894       O  0.70128311  0.90726876  0.48559939    -0.82700
C1895       C  0.71647740  0.91299363  0.47355315     0.97800
O1896       O  0.72466416  0.93135625  0.47512627    -0.82700
O1897       O  0.73030735  0.97418200  0.48360150    -0.85300
C1898       C  0.72006658  0.98310639  0.46859717     1.02400
O1899       O  0.69977990  0.98146672  0.46759299    -0.78100
O1900       O  0.65942403  0.96391904  0.47198759    -0.78300
C1901       C  0.66032046  0.94686350  0.46064997     1.02300
O1902       O  0.65264763  0.93979943  0.51074053    -0.85600
O1903       O  0.68673413  0.91912530  0.52722564    -0.82700
C1904       C  0.70597289  0.91500341  0.53103125     0.97900
O1905       O  0.72091469  0.92266421  0.51973023    -0.82700
O1906       O  0.72174867  0.96581461  0.52756974    -0.85300
C1907       C  0.71649483  0.98523698  0.52640842     1.02300
O1908       O  0.70295003  0.99154953  0.51244594    -0.78100
O1909       O  0.66473697  0.97057515  0.52076285    -0.78300
C1910       C  0.65471246  0.95353909  0.52537647     1.02300
Cr1911     Cr  0.67846936  0.92609518  0.49789865     1.93700
Cr1912     Cr  0.72228217  0.94849320  0.50123894     1.93200
Cr1913     Cr  0.68193999  0.97514286  0.49354794     1.39100
O1914       O  0.69425617  0.94999826  0.49749382    -1.23400
O1915       O  0.88872518  0.51263155  0.67018800    -0.85600
O1916       O  0.86910154  0.49646684  0.70564472    -0.82700
C1917       C  0.86412724  0.49447695  0.72494935     0.97800
O1918       O  0.86926064  0.50843094  0.73875919    -0.82700
O1919       O  0.91242011  0.50523232  0.74498643    -0.85300
C1920       C  0.93136925  0.50414473  0.73819886     1.02400
O1921       O  0.93760429  0.51533932  0.72228123    -0.78100
O1922       O  0.91892869  0.50451889  0.68462717    -0.78300
C1923       C  0.90284459  0.49872313  0.67377963     1.02300
O1924       O  0.87568653  0.55452257  0.68345604    -0.85600
O1925       O  0.85234412  0.53743844  0.71521515    -0.82700
C1926       C  0.85615747  0.55241594  0.72801233     0.97900
O1927       O  0.87435420  0.55450680  0.73641978    -0.82700
O1928       O  0.91695170  0.55007174  0.74679091    -0.85300
C1929       C  0.92804667  0.56254437  0.73544242     1.02300
O1930       O  0.92839519  0.56037340  0.71530245    -0.78100
O1931       O  0.91013859  0.55301806  0.67602109    -0.78300
C1932       C  0.89205987  0.56300982  0.67543277     1.02300
Cr1933     Cr  0.87340186  0.52550110  0.69475205     1.93700
Cr1934     Cr  0.89329277  0.52964237  0.73953748     1.93200
Cr1935     Cr  0.92198768  0.53298978  0.69978044     1.39100
O1936       O  0.89654201  0.52935689  0.71147072    -1.23400
O1937       O  0.45798513  0.70511146  0.91059986    -0.85600
O1938       O  0.43680195  0.73876834  0.89276173    -0.82700
C1939       C  0.43206851  0.75788061  0.88913771     0.97800
O1940       O  0.44412112  0.77312310  0.89517074    -0.82700
O1941       O  0.44119454  0.77583910  0.93829420    -0.85300
C1942       C  0.44301708  0.76968762  0.95733646     1.02400
O1943       O  0.45616422  0.75475058  0.96240626    -0.78100
O1944       O  0.44778471  0.71672578  0.94127801    -0.78300
C1945       C  0.44356554  0.70616254  0.92460189     1.02300
O1946       O  0.49742474  0.72467079  0.89799080    -0.85600
O1947       O  0.47597792  0.75533885  0.87622972    -0.82700
C1948       C  0.48895528  0.77007525  0.88081232     0.97900
O1949       O  0.49025163  0.77712504  0.89953538    -0.82700
O1950       O  0.48549971  0.78278689  0.94267993    -0.85300
C1951       C  0.50024571  0.77204132  0.95144630     1.02300
O1952       O  0.50079004  0.75189446  0.94989613    -0.78100
O1953       O  0.49606583  0.71278287  0.93097385    -0.78300
C1954       C  0.50632557  0.71511543  0.91329541     1.02300
Cr1955     Cr  0.46715378  0.73189514  0.89618783     1.93700
Cr1956     Cr  0.46558896  0.77517108  0.91879822     1.93200
Cr1957     Cr  0.47470183  0.73434493  0.94457361     1.39100
O1958       O  0.46904505  0.74723761  0.92012105    -1.23400
O1959       O  0.66485328  0.55415556  0.89598995    -0.85600
O1960       O  0.69725042  0.54273766  0.87121523    -0.82700
C1961       C  0.71029320  0.55717475  0.87653280     0.97800
O1962       O  0.71977120  0.55655086  0.89441744    -0.82700
O1963       O  0.73125610  0.54574540  0.93584110    -0.85300
C1964       C  0.72038295  0.55754089  0.94792496     1.02400
O1965       O  0.70008787  0.55656604  0.94764700    -0.78100
O1966       O  0.66002159  0.55030360  0.93059026    -0.78300
C1967       C  0.65819197  0.56144399  0.91340667     1.02300
O1968       O  0.65465929  0.51014120  0.90454546    -0.85600
O1969       O  0.69067638  0.49876819  0.88225623    -0.82700
C1970       C  0.70959858  0.49958912  0.87550267     0.97900
O1971       O  0.72283271  0.51288636  0.88292336    -0.82700
O1972       O  0.72824254  0.50215281  0.92557385    -0.85300
C1973       C  0.72287837  0.50020241  0.94496139     1.02300
O1974       O  0.70789004  0.51154266  0.95291399    -0.78100
O1975       O  0.66946024  0.50153420  0.93459188    -0.78300
C1976       C  0.65869204  0.49605009  0.91833867     1.02300
Cr1977     Cr  0.67805282  0.52642916  0.89052539     1.93700
Cr1978     Cr  0.72331763  0.52930212  0.90985622     1.93200
Cr1979     Cr  0.68444314  0.52980220  0.93953011     1.39100
O1980       O  0.69525007  0.52856100  0.91352162    -1.23400
O1981       O  0.80614827  0.89774738  0.60117505    -0.85600
O1982       O  0.78473947  0.86728035  0.62662479    -0.82700
C1983       C  0.76552720  0.86452039  0.61951794     0.97800
O1984       O  0.76256264  0.85564810  0.60182943    -0.82700
O1985       O  0.76922079  0.84327089  0.56137813    -0.85300
C1986       C  0.76679739  0.86269725  0.55674729     1.02400
O1987       O  0.78286858  0.87467652  0.55551131    -0.78100
O1988       O  0.81872540  0.89464109  0.56867302    -0.78300
C1989       C  0.81084808  0.90617760  0.58322705     1.02300
O1990       O  0.84463708  0.86966124  0.59825169    -0.85600
O1991       O  0.82310823  0.83796061  0.62167607    -0.82700
C1992       C  0.81028592  0.82230364  0.62380851     0.97900
O1993       O  0.79123333  0.82463878  0.61764126    -0.82700
O1994       O  0.80249341  0.81531642  0.57679602    -0.85300
C1995       C  0.80882729  0.81790314  0.55800064     1.02300
O1996       O  0.80659768  0.83563380  0.54845101    -0.78100
O1997       O  0.84159182  0.85511659  0.56628949    -0.78300
C1998       C  0.85325919  0.86183878  0.58134715     1.02300
Cr1999     Cr  0.81399091  0.86745307  0.61061563     1.93700
Cr2000     Cr  0.78290356  0.83604516  0.58919476     1.93200
Cr2001     Cr  0.81176427  0.86430703  0.56146736     1.39100
O2002       O  0.80310490  0.85610898  0.58727371    -1.23400
O2003       O  0.58069287  0.86986184  0.86396542    -0.85600
O2004       O  0.60411932  0.83898158  0.84164352    -0.82700
C2005       C  0.60503171  0.82244283  0.82993727     0.97800
O2006       O  0.59730558  0.82311439  0.81134649    -0.82700
O2007       O  0.55536718  0.81903745  0.82018763    -0.85300
C2008       C  0.53652398  0.82311152  0.82569475     1.02400
O2009       O  0.52874090  0.84159220  0.82282598    -0.78100
O2010       O  0.54793347  0.85744286  0.85886430    -0.78300
C2011       C  0.56292257  0.86235265  0.87151443     1.02300
O2012       O  0.58629311  0.89924922  0.82590967    -0.85600
O2013       O  0.61064207  0.86941103  0.80387995    -0.82700
C2014       C  0.60373241  0.86627721  0.78465160     0.97900
O2015       O  0.58679883  0.85598580  0.78179711    -0.82700
O2016       O  0.54510584  0.84971267  0.78656900    -0.85300
C2017       C  0.54264478  0.86969752  0.78483362     1.02300
O2018       O  0.54100055  0.88090894  0.80135304    -0.78100
O2019       O  0.55394864  0.89804224  0.83882681    -0.78300
C2020       C  0.56914393  0.90884981  0.83105076     1.02300
Cr2021     Cr  0.59401613  0.86864799  0.83315382     1.93700
Cr2022     Cr  0.57102033  0.83838968  0.80157790     1.93200
Cr2023     Cr  0.54469859  0.86864722  0.82977440     1.39100
O2024       O  0.57024104  0.85856208  0.82171144    -1.23400
O2025       O  0.81746500  0.61144689  0.85526914    -0.85600
O2026       O  0.78090185  0.59913024  0.83581752    -0.82700
C2027       C  0.76439593  0.59989746  0.82432551     0.97800
O2028       O  0.76552792  0.60592547  0.80515059    -0.82700
O2029       O  0.76011921  0.64603204  0.81832747    -0.85300
C2030       C  0.76310272  0.66306674  0.82837232     1.02400
O2031       O  0.78229176  0.67029738  0.83071635    -0.78100
O2032       O  0.80440059  0.64364658  0.85952657    -0.78300
C2033       C  0.81006548  0.62572844  0.86748360     1.02300
O2034       O  0.83881387  0.61004385  0.81492387    -0.85600
O2035       O  0.80305488  0.59249869  0.79610045    -0.82700
C2036       C  0.80390434  0.60205252  0.77825085     0.97900
O2037       O  0.79803452  0.62110029  0.77631341    -0.82700
O2038       O  0.78836332  0.66191540  0.78653135    -0.85300
C2039       C  0.80768318  0.66719507  0.78436654     1.02300
O2040       O  0.82014136  0.66505155  0.80033246    -0.78100
O2041       O  0.84214342  0.64122824  0.83097111    -0.78300
C2042       C  0.85062475  0.62458896  0.82241941     1.02300
Cr2043     Cr  0.80934101  0.60508031  0.82486186     1.93700
Cr2044     Cr  0.77964311  0.63356127  0.79795946     1.93200
Cr2045     Cr  0.81149719  0.65387078  0.82954466     1.39100
O2046       O  0.80036566  0.63099972  0.81756691    -1.23400
O2047       O  0.64903158  0.66501598  0.91752831    -0.85600
O2048       O  0.66452815  0.70081877  0.93752710    -0.82700
C2049       C  0.68306834  0.69911662  0.92954486     0.97800
O2050       O  0.68667982  0.70563366  0.91099132    -0.82700
O2051       O  0.68100102  0.71579427  0.86959755    -0.85300
C2052       C  0.68214352  0.69727050  0.86180029     1.02400
O2053       O  0.66595916  0.68500596  0.86283500    -0.78100
O2054       O  0.63497514  0.66179485  0.88527256    -0.78300
C2055       C  0.64287154  0.65323489  0.90235142     1.02300
O2056       O  0.60808870  0.68446179  0.91278930    -0.85600
O2057       O  0.62465726  0.72189197  0.92706340    -0.82700
C2058       C  0.63578637  0.73860793  0.92652462     0.97900
O2059       O  0.65570615  0.73743756  0.92335936    -0.82700
O2060       O  0.64742929  0.74403380  0.88222578    -0.85300
C2061       C  0.63783717  0.74131262  0.86485655     1.02300
O2062       O  0.63550983  0.72229637  0.85737808    -0.78100
O2063       O  0.60591034  0.69977047  0.88160226    -0.78300
C2064       C  0.59680740  0.69322946  0.89849289     1.02300
Cr2065     Cr  0.63736481  0.69383930  0.92207443     1.93700
Cr2066     Cr  0.66633317  0.72413173  0.89658469     1.93200
Cr2067     Cr  0.63631868  0.69283343  0.87312651     1.39100
O2068       O  0.64675854  0.70335622  0.89697401    -1.23400
O2069       O  0.85919361  0.66197228  0.65862096    -0.85600
O2070       O  0.83359455  0.69084994  0.68129760    -0.82700
C2071       C  0.84136008  0.69340819  0.70036242     0.97800
O2072       O  0.85811962  0.70412769  0.70294733    -0.82700
O2073       O  0.89769793  0.71969252  0.69738870    -0.85300
C2074       C  0.90450346  0.70095497  0.70024330     1.02400
O2075       O  0.90432268  0.68785628  0.68510347    -0.78100
O2076       O  0.89301746  0.66569103  0.64991151    -0.78300
C2077       C  0.87758470  0.65378590  0.65531822     1.02300
O2078       O  0.86264500  0.69097150  0.62075333    -0.85600
O2079       O  0.83814150  0.72146793  0.64249862    -0.82700
C2080       C  0.83542510  0.73703359  0.65514979     0.97900
O2081       O  0.84031730  0.73423874  0.67442227    -0.82700
O2082       O  0.88066836  0.74554862  0.66336629    -0.85300
C2083       C  0.89940220  0.74352866  0.65666235     1.02300
O2084       O  0.91003625  0.72642968  0.65949549    -0.78100
O2085       O  0.89492189  0.70439921  0.62560137    -0.78300
C2086       C  0.88039477  0.69824983  0.61307110     1.02300
Cr2087     Cr  0.84957775  0.69219375  0.65156033     1.93700
Cr2088     Cr  0.86941911  0.72447117  0.68295179     1.93200
Cr2089     Cr  0.89871859  0.69666670  0.65567977     1.39100
O2090       O  0.87243838  0.70414971  0.66312349    -1.23400
O2091       O  0.61430307  0.95223304  0.66904619    -0.85600
O2092       O  0.65096459  0.96933696  0.68639917    -0.82700
C2093       C  0.64768313  0.96089012  0.70444761     0.97800
O2094       O  0.65265570  0.94181956  0.70788675    -0.82700
O2095       O  0.66093639  0.90010205  0.70127825    -0.85300
C2096       C  0.64158858  0.89465231  0.70253518     1.02400
O2097       O  0.62979793  0.89656708  0.68598023    -0.78100
O2098       O  0.60882442  0.92056495  0.65453316    -0.78300
C2099       C  0.60148678  0.93791174  0.66275013     1.02300
O2100       O  0.63486101  0.94784775  0.62878752    -0.85600
O2101       O  0.67285912  0.95872591  0.64739227    -0.82700
C2102       C  0.68909955  0.95816724  0.65936665     0.97900
O2103       O  0.68725654  0.95326447  0.67886638    -0.82700
O2104       O  0.69084510  0.91202417  0.66952674    -0.85300
C2105       C  0.68697898  0.89539462  0.65912939     1.02300
O2106       O  0.66751472  0.88934115  0.65583075    -0.78100
O2107       O  0.64631930  0.91506689  0.62547205    -0.78300
C2108       C  0.64134224  0.93291759  0.61689161     1.02300
Cr2109     Cr  0.64388596  0.95523408  0.65860147     1.93700
Cr2110     Cr  0.67126980  0.92704251  0.68789576     1.93200
Cr2111     Cr  0.63898319  0.90659476  0.65628532     1.39100
O2112       O  0.65127740  0.92934088  0.66740592    -1.23400
C2113       C  0.80298833  0.67168632  0.74400402    -0.21600
C2114       C  0.81562767  0.67436885  0.76276377    -0.09600
C2115       C  0.83653336  0.68216077  0.76023891     0.29200
C2116       C  0.84431246  0.68746990  0.73996222    -0.21600
C2117       C  0.83177863  0.68529240  0.72107988    -0.09600
C2118       C  0.81093773  0.67699645  0.72340618     0.29300
F2119       F  0.79821202  0.67420972  0.70600310    -0.20100
H2120       H  0.78693867  0.66519077  0.74523372     0.17600
H2121       H  0.86051385  0.69364178  0.73927821     0.17600
F2122       F  0.84965556  0.68480732  0.77739622    -0.20100
C2123       C  0.72295706  0.66453749  0.83058326    -0.21600
C2124       C  0.74293378  0.67369261  0.83643291    -0.09600
C2125       C  0.74251196  0.69162028  0.84999559     0.29200
C2126       C  0.72269559  0.69966046  0.85763466    -0.21600
C2127       C  0.70289866  0.68992708  0.85210266    -0.09600
C2128       C  0.70342400  0.67233088  0.83829913     0.29300
F2129       F  0.68500549  0.66248950  0.83217851    -0.20100
H2130       H  0.72224534  0.65082886  0.82004041     0.17600
H2131       H  0.72289618  0.71317641  0.86844793     0.17600
F2132       F  0.76108741  0.70102956  0.85628506    -0.20100
C2133       C  0.63492328  0.88327002  0.76327528    -0.21600
C2134       C  0.61441771  0.87390535  0.76411532    -0.09600
C2135       C  0.60345669  0.87125858  0.74420340     0.29200
C2136       C  0.61243110  0.87776691  0.72472176    -0.21600
C2137       C  0.63286481  0.88684392  0.72374591    -0.09600
C2138       C  0.64408746  0.88957294  0.74343499     0.29300
F2139       F  0.66380632  0.89876036  0.74366405    -0.20100
H2140       H  0.64392843  0.88565183  0.77791614     0.17600
H2141       H  0.60318522  0.87556891  0.71018775     0.17600
F2142       F  0.58372426  0.86218942  0.74314439    -0.20100
C2143       C  0.60859667  0.78196259  0.82835791    -0.21600
C2144       C  0.61446918  0.80170134  0.83785885    -0.09600
C2145       C  0.62846063  0.80106718  0.85543885     0.29200
C2146       C  0.63616428  0.78147418  0.86327393    -0.21600
C2147       C  0.63005024  0.76159654  0.85419535    -0.09600
C2148       C  0.61615879  0.76215338  0.83644833     0.29300
F2149       F  0.60940206  0.74368818  0.82729442    -0.20100
H2150       H  0.59759471  0.78180653  0.81492461     0.17600
H2151       H  0.64688394  0.78203088  0.87691941     0.17600
F2152       F  0.63482243  0.81939794  0.86515601    -0.20100
C2153       C  0.83174750  0.79824378  0.64898682    -0.21600
C2154       C  0.81691326  0.80068293  0.63223130    -0.09600
C2155       C  0.80782510  0.78187970  0.62338755     0.29200
C2156       C  0.81390393  0.76138700  0.63065099    -0.21600
C2157       C  0.82842075  0.75890052  0.64764537    -0.09600
C2158       C  0.83705121  0.77772826  0.65695797     0.29300
F2159       F  0.85103178  0.77639369  0.67358161    -0.20100
H2160       H  0.83889623  0.81224592  0.65625241     0.17600
H2161       H  0.80696436  0.74740715  0.62314593     0.17600
F2162       F  0.79321184  0.78321261  0.60730592    -0.20100
C2163       C  0.72524913  0.86468570  0.62303927    -0.21600
C2164       C  0.74559109  0.87061730  0.63144955    -0.09600
C2165       C  0.74601939  0.88233377  0.65050480     0.29200
C2166       C  0.72673369  0.88886513  0.66006598    -0.21600
C2167       C  0.70643475  0.88401128  0.65094410    -0.09600
C2168       C  0.70596231  0.87120471  0.63263117     0.29300
F2169       F  0.68700689  0.86597858  0.62328101    -0.20100
H2170       H  0.72413007  0.85533194  0.60852151     0.17600
H2171       H  0.72777493  0.89855117  0.67437621     0.17600
F2172       F  0.76495388  0.88817370  0.65952354    -0.20100
C2173       C  0.64094254  0.59219787  0.89348238    -0.21600
C2174       C  0.64974802  0.58402957  0.91275546    -0.09600
C2175       C  0.65498692  0.59882296  0.92882491     0.29200
C2176       C  0.65240755  0.62098655  0.92528646    -0.21600
C2177       C  0.64445310  0.62926083  0.90565411    -0.09600
C2178       C  0.63819213  0.61436529  0.88998608     0.29300
F2179       F  0.63004732  0.62113367  0.87098513    -0.20100
H2180       H  0.63698206  0.58133876  0.88059824     0.17600
H2181       H  0.65727947  0.63176699  0.93792053     0.17600
F2182       F  0.66418711  0.59205179  0.94735069    -0.20100
C2183       C  0.72680415  0.59169993  0.86836096    -0.21600
C2184       C  0.71654084  0.57328366  0.86094975    -0.09600
C2185       C  0.71676020  0.56835855  0.83895429     0.29200
C2186       C  0.73087926  0.57917436  0.82554831    -0.21600
C2187       C  0.74412717  0.59490856  0.83421155    -0.09600
C2188       C  0.74059550  0.60260128  0.85496454     0.29300
F2189       F  0.75261799  0.61880660  0.86307350    -0.20100
H2190       H  0.72605404  0.59619792  0.88508506     0.17600
H2191       H  0.73324395  0.57360182  0.80931725     0.17600
F2192       F  0.70575519  0.55138929  0.83106050    -0.20100
C2193       C  0.54129246  0.69716498  0.92544641    -0.21600
C2194       C  0.52896328  0.70730543  0.90948605    -0.09600
C2195       C  0.53909570  0.71142822  0.88953425     0.29200
C2196       C  0.56065510  0.70614391  0.88603920    -0.21600
C2197       C  0.57314230  0.69651300  0.90204654    -0.09600
C2198       C  0.56305032  0.69176952  0.92182544     0.29300
F2199       F  0.57431344  0.68247993  0.93798477    -0.20100
H2200       H  0.53425394  0.69381522  0.94091731     0.17600
H2201       H  0.56773789  0.71013953  0.87073279     0.17600
F2202       F  0.52846167  0.72124007  0.87323898    -0.20100
C2203       C  0.49139450  0.78946985  0.84662022    -0.21600
C2204       C  0.50166832  0.78014253  0.86431255    -0.09600
C2205       C  0.52366346  0.78316114  0.86773714     0.29200
C2206       C  0.53514845  0.79624372  0.85400882    -0.21600
C2207       C  0.52461061  0.80690375  0.83724539    -0.09600
C2208       C  0.50279922  0.80318131  0.83322367     0.29300
F2209       F  0.49254630  0.81315892  0.81680073    -0.20100
H2210       H  0.47432777  0.78725580  0.84406152     0.17600
H2211       H  0.55200345  0.79912653  0.85726874     0.17600
F2212       F  0.53375155  0.77419872  0.88485665    -0.20100
C2213       C  0.90630196  0.59994302  0.66573782    -0.21600
C2214       C  0.88919975  0.58533130  0.66645057    -0.09600
C2215       C  0.86831224  0.59338323  0.66195170     0.29200
C2216       C  0.86468719  0.61531818  0.65803938    -0.21600
C2217       C  0.88166745  0.63006562  0.65809990    -0.09600
C2218       C  0.90267616  0.62191297  0.66160483     0.29300
F2219       F  0.91975161  0.63534750  0.66221250    -0.20100
H2220       H  0.92243607  0.59457689  0.66947431     0.17600
H2221       H  0.84841192  0.62080760  0.65520383     0.17600
F2222       F  0.85107414  0.58011077  0.66187898    -0.20100
C2223       C  0.84274144  0.58816324  0.73616381    -0.21600
C2224       C  0.83901774  0.56615877  0.73489363    -0.09600
C2225       C  0.82073498  0.55699822  0.74411001     0.29200
C2226       C  0.80771527  0.56948200  0.75698764    -0.21600
C2227       C  0.81273980  0.59105046  0.76008044    -0.09600
C2228       C  0.82937362  0.60077664  0.74854764     0.29300
F2229       F  0.83438429  0.62171661  0.75148317    -0.20100
H2230       H  0.85689256  0.59519175  0.72894900     0.17600
H2231       H  0.79479258  0.56201485  0.76585108     0.17600
F2232       F  0.81713106  0.53560282  0.74298058    -0.20100
C2233       C  0.64617793  0.92686710  0.55526827    -0.21600
C2234       C  0.64827018  0.94837606  0.54827996    -0.09600
C2235       C  0.64709244  0.96436030  0.56409435     0.29200
C2236       C  0.64438551  0.95900991  0.58588538    -0.21600
C2237       C  0.64321833  0.93752060  0.59304211    -0.09600
C2238       C  0.64403453  0.92146924  0.57723408     0.29300
F2239       F  0.64283098  0.90053698  0.58291869    -0.20100
H2240       H  0.64708825  0.91400239  0.54374747     0.17600
H2241       H  0.64380467  0.97193793  0.59736677     0.17600
F2242       F  0.64884588  0.98530763  0.55859454    -0.20100
C2243       C  0.71154938  0.87774493  0.53942727    -0.21600
C2244       C  0.71172403  0.89900251  0.54662634    -0.09600
C2245       C  0.72636137  0.90537339  0.56224791     0.29200
C2246       C  0.74348730  0.89213112  0.56711355    -0.21600
C2247       C  0.74573220  0.87251163  0.55652028    -0.09600
C2248       C  0.72885364  0.86437800  0.54422867     0.29300
F2249       F  0.73055816  0.84506948  0.53449035    -0.20100
H2250       H  0.70018353  0.87277740  0.52724935     0.17600
H2251       H  0.75618024  0.89816858  0.57736696     0.17600
F2252       F  0.72662604  0.92590461  0.56914905    -0.20100
C2253       C  0.53982135  0.93748452  0.65521636    -0.21600
C2254       C  0.53336573  0.95460900  0.66848347    -0.09600
C2255       C  0.54952532  0.96543211  0.67999048     0.29200
C2256       C  0.57116753  0.95952730  0.67810618    -0.21600
C2257       C  0.57778303  0.94257862  0.66478651    -0.09600
C2258       C  0.56171352  0.93159531  0.65325566     0.29300
F2259       F  0.56708864  0.91534533  0.63994286    -0.20100
H2260       H  0.52784691  0.92844365  0.64651023     0.17600
H2261       H  0.58286711  0.96827166  0.68748223     0.17600
F2262       F  0.54443293  0.98116707  0.69403188    -0.20100
C2263       C  0.55046400  0.91368269  0.74530929    -0.21600
C2264       C  0.53706262  0.90643209  0.72895463    -0.09600
C2265       C  0.53207101  0.88454130  0.72773443     0.29200
C2266       C  0.53517481  0.87158622  0.74571096    -0.21600
C2267       C  0.54405320  0.88052734  0.76420057    -0.09600
C2268       C  0.55363718  0.90090316  0.76319882     0.29300
F2269       F  0.56428682  0.90921465  0.78022405    -0.20100
H2270       H  0.55498062  0.93041361  0.74608355     0.17600
H2271       H  0.52880063  0.85546864  0.74588543     0.17600
F2272       F  0.52028325  0.87694142  0.71113570    -0.20100
C2273       C  0.91097793  0.70928565  0.56035627    -0.21600
C2274       C  0.89539457  0.70605218  0.54452077    -0.09600
C2275       C  0.87497138  0.69854644  0.55132116     0.29200
C2276       C  0.87016042  0.69541899  0.57325736    -0.21600
C2277       C  0.88543060  0.69982149  0.58925446    -0.09600
C2278       C  0.90619825  0.70635205  0.58221866     0.29300
F2279       F  0.92204169  0.71069244  0.59649456    -0.20100
H2280       H  0.92661643  0.71541410  0.55593832     0.17600
H2281       H  0.85423266  0.69014504  0.57771614     0.17600
F2282       F  0.85929032  0.69480530  0.53668982    -0.20100
C2283       C  0.82961539  0.78437060  0.51426979    -0.21600
C2284       C  0.84904856  0.77785515  0.52346857    -0.09600
C2285       C  0.85321648  0.78120162  0.54520365     0.29200
C2286       C  0.83844287  0.79249418  0.55732220    -0.21600
C2287       C  0.82005415  0.80089954  0.54744483    -0.09600
C2288       C  0.81521164  0.79621159  0.52614754     0.29300
F2289       F  0.79738562  0.80436135  0.51656047    -0.20100
H2290       H  0.82637280  0.78183429  0.49741160     0.17600
H2291       H  0.84224325  0.79631395  0.57381871     0.17600
F2292       F  0.87191273  0.77453035  0.55427862    -0.20100
C2293       C  0.13549738  0.39225570  0.26924354    -0.21600
C2294       C  0.12408373  0.37305871  0.27010652    -0.09600
C2295       C  0.11981946  0.36243350  0.25047748     0.29200
C2296       C  0.12664009  0.37110564  0.23068708    -0.21600
C2297       C  0.13800277  0.39049359  0.22986498    -0.09600
C2298       C  0.14245355  0.40079300  0.24972624     0.29300
F2299       F  0.15337507  0.41955548  0.25061474    -0.20100
H2300       H  0.13894914  0.40093962  0.28382889     0.17600
H2301       H  0.12281766  0.36274135  0.21601770     0.17600
F2302       F  0.10837428  0.34397806  0.25024430    -0.20100
C2303       C  0.10502992  0.28073369  0.34126896    -0.21600
C2304       C  0.11824831  0.29917432  0.34231530    -0.09600
C2305       C  0.13965506  0.29619958  0.34892094     0.29200
C2306       C  0.14747332  0.27539213  0.35377455    -0.21600
C2307       C  0.13416982  0.25703323  0.35223977    -0.09600
C2308       C  0.11273361  0.26019393  0.34601533     0.29300
F2309       F  0.09901055  0.24341535  0.34441514    -0.20100
H2310       H  0.08837247  0.28204377  0.33646827     0.17600
H2311       H  0.16396153  0.27368763  0.35900558     0.17600
F2312       F  0.15309316  0.31318794  0.35036324    -0.20100
C2313       C  0.33766580  0.18426103  0.26306352    -0.21600
C2314       C  0.31952726  0.17118067  0.26256744    -0.09600
C2315       C  0.31020408  0.16669552  0.24225057     0.29200
C2316       C  0.31937342  0.17433991  0.22313041    -0.21600
C2317       C  0.33806404  0.18672429  0.22352878    -0.09600
C2318       C  0.34683507  0.19193330  0.24400343     0.29300
F2319       F  0.36464221  0.20429015  0.24588073    -0.20100
H2320       H  0.34528360  0.18795180  0.27819734     0.17600
H2321       H  0.31199954  0.17023939  0.20798924     0.17600
F2322       F  0.29218368  0.15460192  0.24072339    -0.20100
C2323       C  0.22927042  0.17484334  0.32298072    -0.21600
C2324       C  0.24748356  0.17175699  0.33631498    -0.09600
C2325       C  0.24461744  0.17384880  0.35848107     0.29200
C2326       C  0.22457964  0.17910488  0.36686937    -0.21600
C2327       C  0.20633993  0.18250418  0.35384039    -0.09600
C2328       C  0.20892133  0.18025328  0.33158744     0.29300
F2329       F  0.19218091  0.18406577  0.31817708    -0.20100
H2330       H  0.23078154  0.17310204  0.30579407     0.17600
H2331       H  0.22355466  0.18101980  0.38410216     0.17600
F2332       F  0.26115051  0.17064798  0.37232463    -0.20100
C2333       C  0.33570788  0.29927561  0.15600094    -0.21600
C2334       C  0.32061969  0.30190011  0.13948903    -0.09600
C2335       C  0.31197273  0.28315480  0.13009155     0.29200
C2336       C  0.31893713  0.26260165  0.13640840    -0.21600
C2337       C  0.33381446  0.25995425  0.15308949    -0.09600
C2338       C  0.34181309  0.27867118  0.16310184     0.29300
F2339       F  0.35605725  0.27715840  0.17948985    -0.20100
H2340       H  0.34254943  0.31320600  0.16367555     0.17600
H2341       H  0.31243894  0.24869552  0.12839907     0.17600
F2342       F  0.29707769  0.28459653  0.11429175    -0.20100
C2343       C  0.22888153  0.39646294  0.16412535    -0.21600
C2344       C  0.20900341  0.38945251  0.15542036    -0.09600
C2345       C  0.20978309  0.37443322  0.13884748     0.29200
C2346       C  0.22959912  0.36730593  0.13084328    -0.21600
C2347       C  0.24958263  0.37491860  0.13879440    -0.09600
C2348       C  0.24887347  0.38937640  0.15595973     0.29300
F2349       F  0.26732623  0.39721885  0.16439381    -0.20100
H2350       H  0.22899595  0.40806180  0.17696189     0.17600
H2351       H  0.22913384  0.35582216  0.11791087     0.17600
F2352       F  0.19139664  0.36652590  0.13029499    -0.20100
C2353       C  0.04652853  0.21189244  0.43300358    -0.21600
C2354       C  0.03080852  0.20618861  0.41791986    -0.09600
C2355       C  0.03806190  0.19701771  0.39848373     0.29200
C2356       C  0.06025147  0.19435648  0.39422318    -0.21600
C2357       C  0.07597524  0.20076861  0.40908995    -0.09600
C2358       C  0.06856066  0.20923744  0.42883123     0.29300
F2359       F  0.08257595  0.21539264  0.44429740    -0.20100
H2360       H  0.04180738  0.21910229  0.44802099     0.17600
H2361       H  0.06511930  0.18766658  0.37901932     0.17600
F2362       F  0.02377135  0.19128436  0.38313846    -0.20100
C2363       C  0.01755309  0.27286910  0.34307701    -0.21600
C2364       C  0.02374185  0.27017976  0.36450526    -0.09600
C2365       C  0.04084630  0.28183268  0.37295998     0.29200
C2366       C  0.04948788  0.29841346  0.36107661    -0.21600
C2367       C  0.04115903  0.30312843  0.34075379    -0.09600
C2368       C  0.02637570  0.28940504  0.33103254     0.29300
F2369       F  0.01849501  0.29367343  0.31120185    -0.20100
H2370       H  0.00406206  0.26401766  0.33664232     0.17600
H2371       H  0.06141194  0.30870230  0.36840790     0.17600
F2372       F  0.04674615  0.27940495  0.39374924    -0.20100
C2373       C  0.37419758  0.11652787  0.15511935    -0.21600
C2374       C  0.38996232  0.13217316  0.15899426    -0.09600
C2375       C  0.41044438  0.12496958  0.16573825     0.29200
C2376       C  0.41469286  0.10302861  0.16914515    -0.21600
C2377       C  0.39887908  0.08732578  0.16563516    -0.09600
C2378       C  0.37858957  0.09447850  0.15809033     0.29300
F2379       F  0.36258902  0.08026083  0.15432238    -0.20100
H2380       H  0.35834607  0.12137791  0.14980414     0.17600
H2381       H  0.43033432  0.09839332  0.17522639     0.17600
F2382       F  0.42620370  0.13927417  0.17016209    -0.20100
C2383       C  0.30939015  0.08190191  0.24643275    -0.21600
C2384       C  0.31704413  0.09621679  0.26175479    -0.09600
C2385       C  0.33651730  0.10707915  0.25839277     0.29200
C2386       C  0.34990115  0.10090143  0.24182588    -0.21600
C2387       C  0.34392396  0.08382467  0.22882416    -0.09600
C2388       C  0.32288613  0.07573282  0.22976430     0.29300
F2389       F  0.31690759  0.05922739  0.21700761    -0.20100
H2390       H  0.29423814  0.07374413  0.24873256     0.17600
H2391       H  0.36609910  0.10717553  0.24122930     0.17600
F2392       F  0.34374395  0.12177493  0.27265168    -0.20100
C2393       C  0.14115754  0.43267051  0.05976064    -0.21600
C2394       C  0.15079222  0.45160928  0.05176699    -0.09600
C2395       C  0.15817841  0.46648993  0.06693488     0.29200
C2396       C  0.15646058  0.46228293  0.08909113    -0.21600
C2397       C  0.14740117  0.44305685  0.09712433    -0.09600
C2398       C  0.13937491  0.42846124  0.08194726     0.29300
F2399       F  0.13022990  0.40985609  0.08842056    -0.20100
H2400       H  0.13573171  0.42053387  0.04866492     0.17600
H2401       H  0.16288448  0.47405507  0.10004340     0.17600
F2402       F  0.16865313  0.48437341  0.06043696    -0.20100
C2403       C  0.24722814  0.39588356  0.06767328    -0.21600
C2404       C  0.25053686  0.37535957  0.05928649    -0.09600
C2405       C  0.23605691  0.36677179  0.04455448     0.29200
C2406       C  0.22019099  0.37997103  0.03591896    -0.21600
C2407       C  0.21953481  0.40176527  0.04149224    -0.09600
C2408       C  0.23168323  0.40911554  0.05886270     0.29300
F2409       F  0.23026398  0.42971979  0.06559630    -0.20100
H2410       H  0.25795626  0.40229970  0.07973122     0.17600
H2411       H  0.21036767  0.37386501  0.02300775     0.17600
F2412       F  0.23899268  0.34681907  0.03653279    -0.20100
C2413       C  0.14391809  0.09243831  0.39886474    -0.21600
C2414       C  0.14972844  0.08576822  0.41974882    -0.09600
C2415       C  0.15228239  0.10193541  0.43529350     0.29200
C2416       C  0.14912262  0.12374769  0.43005894    -0.21600
C2417       C  0.14384761  0.13041324  0.40907535    -0.09600
C2418       C  0.14123002  0.11430446  0.39353111     0.29300
F2419       F  0.13599221  0.11962325  0.37311589    -0.20100
H2420       H  0.14213672  0.08068065  0.38628553     0.17600
H2421       H  0.15148896  0.13560406  0.44245375     0.17600
F2422       F  0.15840879  0.09680790  0.45551398    -0.20100
C2423       C  0.24492381  0.10237396  0.36047150    -0.21600
C2424       C  0.24624965  0.09293154  0.34023129    -0.09600
C2425       C  0.23175768  0.07716509  0.33392799     0.29200
C2426       C  0.21686390  0.06969702  0.34862956    -0.21600
C2427       C  0.21696686  0.07766828  0.36956478    -0.09600
C2428       C  0.23047982  0.09450535  0.37532799     0.29300
F2429       F  0.23115103  0.10172376  0.39578720    -0.20100
H2430       H  0.25595928  0.11495665  0.36512674     0.17600
H2431       H  0.20672678  0.05627305  0.34437403     0.17600
F2432       F  0.23271476  0.06843705  0.31409686    -0.20100
C2433       C  0.04739958  0.46412762  0.17406446    -0.21600
C2434       C  0.03229843  0.44742344  0.17471337    -0.09600
C2435       C  0.04002700  0.42643385  0.17044368     0.29200
C2436       C  0.06196642  0.42232772  0.16648606    -0.21600
C2437       C  0.07709098  0.43892878  0.16616851    -0.09600
C2438       C  0.06937870  0.46001750  0.16982948     0.29300
F2439       F  0.08331425  0.47667962  0.17041278    -0.20100
H2440       H  0.04239114  0.48030916  0.17777433     0.17600
H2441       H  0.06712313  0.40602092  0.16359676     0.17600
F2442       F  0.02632328  0.40957058  0.17034689    -0.20100
C2443       C  0.03221566  0.40628883  0.24752480    -0.21600
C2444       C  0.01014534  0.40236112  0.24668136    -0.09600
C2445       C  0.00141350  0.38374656  0.25554072     0.29200
C2446       C  0.01458747  0.36988200  0.26680484    -0.21600
C2447       C  0.03642446  0.37452216  0.26900056    -0.09600
C2448       C  0.04551868  0.39215267  0.25847556     0.29300
F2449       F  0.06663788  0.39700430  0.26087586    -0.20100
H2450       H  0.03889304  0.42070800  0.24056971     0.17600
H2451       H  0.00753384  0.35638313  0.27510869     0.17600
F2452       F  0.97993094  0.38015169  0.25517706    -0.20100
C2453       C  0.37651235  0.19564300  0.07520628    -0.21600
C2454       C  0.39053223  0.20349882  0.09106304    -0.09600
C2455       C  0.40980729  0.21331187  0.08374647     0.29200
C2456       C  0.41455010  0.21531749  0.06180479    -0.21600
C2457       C  0.40049555  0.20779699  0.04593067    -0.09600
C2458       C  0.38130311  0.19778055  0.05307154     0.29300
F2459       F  0.36678553  0.19040935  0.03867197    -0.20100
H2460       H  0.36167891  0.18794843  0.07990370     0.17600
H2461       H  0.42920109  0.22344222  0.05723995     0.17600
F2462       F  0.42429966  0.22146530  0.09777248    -0.20100
C2463       C  0.34831467  0.27341296  0.05430410    -0.21600
C2464       C  0.34499891  0.27180510  0.03227167    -0.09600
C2465       C  0.32746602  0.28210130  0.02250848     0.29200
C2466       C  0.31496112  0.29612870  0.03420008    -0.21600
C2467       C  0.31971979  0.29963579  0.05569729    -0.09600
C2468       C  0.33558943  0.28736380  0.06613913     0.29300
F2469       F  0.34047673  0.29078227  0.08702865    -0.20100
H2470       H  0.36196569  0.26564575  0.06183829     0.17600
H2471       H  0.30251536  0.30529811  0.02617704     0.17600
F2472       F  0.32383177  0.28022084  0.00119575    -0.20100
C2473       C  0.15448072  0.93680513  0.42625719    -0.21600
C2474       C  0.14978659  0.92907163  0.40547281    -0.09600
C2475       C  0.14550955  0.94433332  0.38943016     0.29200
C2476       C  0.14667613  0.96639290  0.39389689    -0.21600
C2477       C  0.15212755  0.97417272  0.41446175    -0.09600
C2478       C  0.15563731  0.95893823  0.43072411     0.29300
F2479       F  0.16169773  0.96531159  0.45056563    -0.20100
H2480       H  0.15778464  0.92563865  0.43913362     0.17600
H2481       H  0.14425258  0.97753263  0.38080147     0.17600
F2482       F  0.14120893  0.93804653  0.36911010    -0.20100
C2483       C  0.40643888  0.93961131  0.17253558    -0.21600
C2484       C  0.38639433  0.93099266  0.16603325    -0.09600
C2485       C  0.36991012  0.94570086  0.16117955     0.29200
C2486       C  0.37314857  0.96796396  0.16376085    -0.21600
C2487       C  0.39299035  0.97647100  0.17088200    -0.09600
C2488       C  0.40974924  0.96185151  0.17483258     0.29300
F2489       F  0.42894295  0.96886461  0.18234917    -0.20100
H2490       H  0.41968698  0.92901093  0.17636368     0.17600
H2491       H  0.35972996  0.97863295  0.16081407     0.17600
F2492       F  0.35034889  0.93862555  0.15479888    -0.20100
C2493       C  0.33552754  0.96487697  0.25900340    -0.21600
C2494       C  0.31653734  0.97394883  0.26672594    -0.09600
C2495       C  0.30862660  0.99313117  0.25818832     0.29200
C2496       C  0.32120865  0.00446850  0.24369849    -0.21600
C2497       C  0.34151124  0.99653217  0.23809593    -0.09600
C2498       C  0.34793373  0.97603200  0.24449467     0.29300
F2499       F  0.36720873  0.96788235  0.23845898    -0.20100
H2500       H  0.34164684  0.94999565  0.26563571     0.17600
H2501       H  0.31622169  0.02038145  0.23881328     0.17600
F2502       F  0.29035562  0.00210494  0.26588514    -0.20100
C2503       C  0.23212854  0.97191449  0.37525148    -0.21600
C2504       C  0.22156235  0.99045894  0.36821875    -0.09600
C2505       C  0.22163320  0.99601377  0.34636863     0.29200
C2506       C  0.23450910  0.98463492  0.33232799    -0.21600
C2507       C  0.24647013  0.96734294  0.33992326    -0.09600
C2508       C  0.24443455  0.96022133  0.36105263     0.29300
F2509       F  0.25591309  0.94319589  0.36835922    -0.20100
H2510       H  0.23191485  0.96722486  0.39195939     0.17600
H2511       H  0.23607383  0.98997130  0.31589233     0.17600
F2512       F  0.21097713  0.01349972  0.33894962    -0.20100
C2513       C  0.21074821  0.88740889  0.33247966    -0.21600
C2514       C  0.20883713  0.87077269  0.34743363    -0.09600
C2515       C  0.22795470  0.86151204  0.35564764     0.29200
C2516       C  0.24826838  0.86931971  0.34966726    -0.21600
C2517       C  0.25017858  0.88573007  0.33446545    -0.09600
C2518       C  0.23106838  0.89442400  0.32563536     0.29300
F2519       F  0.23191143  0.91015452  0.31067018    -0.20100
H2520       H  0.19647374  0.89480351  0.32583673     0.17600
H2521       H  0.26253989  0.86226016  0.35666898     0.17600
F2522       F  0.22712041  0.84516378  0.36993002    -0.20100
C2523       C  0.33021442  0.86883971  0.26301381    -0.21600
C2524       C  0.32365682  0.89040894  0.26411891    -0.09600
C2525       C  0.32301371  0.90208736  0.24456320     0.29200
C2526       C  0.32833455  0.89263006  0.22503293    -0.21600
C2527       C  0.33457365  0.87113870  0.22371352    -0.09600
C2528       C  0.33564661  0.85930015  0.24312063     0.29300
F2529       F  0.34224509  0.83859914  0.24300074    -0.20100
H2530       H  0.33088989  0.85926662  0.27746777     0.17600
H2531       H  0.32768360  0.90246208  0.21074010     0.17600
F2532       F  0.31706801  0.92297959  0.24395767    -0.20100
C2533       C  0.10745717  0.78069935  0.33204845    -0.21600
C2534       C  0.11878703  0.76106007  0.33441596    -0.09600
C2535       C  0.13930307  0.76151458  0.34353459     0.29200
C2536       C  0.14794713  0.78102966  0.35041781    -0.21600
C2537       C  0.13635048  0.80047755  0.34840004    -0.09600
C2538       C  0.11609964  0.80011804  0.33888904     0.29300
F2539       F  0.10407836  0.81821508  0.33748194    -0.20100
H2540       H  0.09148005  0.78113788  0.32518885     0.17600
H2541       H  0.16361794  0.78086925  0.35798409     0.17600
F2542       F  0.15084296  0.74323671  0.34608535    -0.20100
C2543       C  0.12072118  0.69899561  0.24384299    -0.21600
C2544       C  0.12040902  0.68628441  0.26269446    -0.09600
C2545       C  0.12438485  0.66426050  0.26041319     0.29200
C2546       C  0.12866089  0.65539995  0.24032269    -0.21600
C2547       C  0.12943042  0.66791401  0.22142216    -0.09600
C2548       C  0.12524980  0.68999581  0.22348002     0.29300
F2549       F  0.12605293  0.70296342  0.20606784    -0.20100
H2550       H  0.11735348  0.71595212  0.24482667     0.17600
H2551       H  0.13177603  0.63838359  0.23975557     0.17600
F2552       F  0.12411602  0.65098463  0.27763629    -0.20100
C2553       C  0.33553014  0.75749672  0.15341325    -0.21600
C2554       C  0.31815874  0.75767132  0.13921371    -0.09600
C2555       C  0.30953010  0.77800858  0.13323617     0.29200
C2556       C  0.31885187  0.79729110  0.14019955    -0.21600
C2557       C  0.33691553  0.79713242  0.15351457    -0.09600
C2558       C  0.34468640  0.77679735  0.16060729     0.29300
F2559       F  0.36141035  0.77533987  0.17449818    -0.20100
H2560       H  0.34253708  0.74241807  0.15843231     0.17600
H2561       H  0.31217286  0.81236025  0.13473207     0.17600
F2562       F  0.29213592  0.77944059  0.12017213    -0.20100
C2563       C  0.20606588  0.68514753  0.13331788    -0.21600
C2564       C  0.20335273  0.67216937  0.15142162    -0.09600
C2565       C  0.22206407  0.66554338  0.16265458     0.29200
C2566       C  0.24275381  0.67140326  0.15557484    -0.21600
C2567       C  0.24535805  0.68483615  0.13775089    -0.09600
C2568       C  0.22661473  0.69183801  0.12688993     0.29300
F2569       F  0.22806536  0.70504478  0.10971923    -0.20100
H2570       H  0.19218414  0.69043650  0.12426503     0.17600
H2571       H  0.25670853  0.66586320  0.16435780     0.17600
F2572       F  0.22048315  0.65299535  0.18032210    -0.20100
C2573       C  0.30965930  0.44521602  0.10168009    -0.21600
C2574       C  0.31292981  0.43047730  0.08511876    -0.09600
C2575       C  0.31141127  0.43837429  0.06381919     0.29200
C2576       C  0.30582613  0.46000921  0.05947979    -0.21600
C2577       C  0.30175664  0.47454673  0.07616571    -0.09600
C2578       C  0.30443814  0.46675762  0.09741182     0.29300
F2579       F  0.30157417  0.47990478  0.11442198    -0.20100
H2580       H  0.31088135  0.43999478  0.11818128     0.17600
H2581       H  0.30383486  0.46512530  0.04302420     0.17600
F2582       F  0.31428353  0.42495120  0.04703987    -0.20100
C2583       C  0.31250237  0.58909285  0.08776415    -0.21600
C2584       C  0.30311591  0.58354042  0.06784592    -0.09600
C2585       C  0.29546218  0.60042580  0.05494969     0.29200
C2586       C  0.29686423  0.62176074  0.06178685    -0.21600
C2587       C  0.30600286  0.62749633  0.08173824    -0.09600
C2588       C  0.31399540  0.61069693  0.09462214     0.29300
F2589       F  0.32303602  0.61501172  0.11388585    -0.20100
H2590       H  0.31820683  0.57659962  0.09838488     0.17600
H2591       H  0.29043219  0.63392623  0.05118888     0.17600
F2592       F  0.28576664  0.59642067  0.03590700    -0.20100
C2593       C  0.21759826  0.60934893  0.12962603    -0.21600
C2594       C  0.21197512  0.59667307  0.14730234    -0.09600
C2595       C  0.22376561  0.57835313  0.15242125     0.29200
C2596       C  0.23966901  0.57149569  0.13847421    -0.21600
C2597       C  0.24293105  0.58239536  0.11907793    -0.09600
C2598       C  0.23287579  0.60202257  0.11524733     0.29300
F2599       F  0.23567384  0.61245488  0.09638414    -0.20100
H2600       H  0.20870452  0.62382528  0.12590712     0.17600
H2601       H  0.24726501  0.55614158  0.14137160     0.17600
F2602       F  0.21896557  0.56648505  0.16998255    -0.20100
C2603       C  0.23336105  0.48504705  0.13308619    -0.21600
C2604       C  0.22470182  0.50341103  0.12364051    -0.09600
C2605       C  0.20517351  0.51188659  0.13049877     0.29200
C2606       C  0.19345638  0.50112712  0.14584715    -0.21600
C2607       C  0.20100562  0.48160816  0.15413753    -0.09600
C2608       C  0.22147943  0.47398049  0.14831371     0.29300
F2609       F  0.22947695  0.45538203  0.15634984    -0.20100
H2610       H  0.24875731  0.47883101  0.12796518     0.17600
H2611       H  0.17789837  0.50747641  0.15025575     0.17600
F2612       F  0.19720019  0.53022513  0.12183853    -0.20100
C2613       C  0.04829351  0.46080454  0.30748283    -0.21600
C2614       C  0.05683555  0.47663269  0.32086776    -0.09600
C2615       C  0.07256364  0.47019737  0.33602761     0.29200
C2616       C  0.07873873  0.44834889  0.33806542    -0.21600
C2617       C  0.06976120  0.43251748  0.32470834    -0.09600
C2618       C  0.05473737  0.43940405  0.30907761     0.29300
F2619       F  0.04612558  0.42538278  0.29494128    -0.20100
H2620       H  0.03694225  0.46509996  0.29500988     0.17600
H2621       H  0.09020238  0.44379665  0.35032599     0.17600
F2622       F  0.08177076  0.48492432  0.34903631    -0.20100
C2623       C  0.04386363  0.59944408  0.31696464    -0.21600
C2624       C  0.06139207  0.58549980  0.31901232    -0.09600
C2625       C  0.08152968  0.59421975  0.32482860     0.29200
C2626       C  0.08424903  0.61641337  0.32709819    -0.21600
C2627       C  0.06707802  0.63052595  0.32342919    -0.09600
C2628       C  0.04659253  0.62164653  0.31906068     0.29300
F2629       F  0.02916043  0.63441397  0.31615662    -0.20100
H2630       H  0.02827875  0.59330467  0.31235246     0.17600
H2631       H  0.10005327  0.62258993  0.33080233     0.17600
F2632       F  0.09891160  0.58132155  0.32744623    -0.20100
C2633       C  0.11938626  0.59474845  0.22568365    -0.21600
C2634       C  0.13909450  0.58558325  0.22008089    -0.09600
C2635       C  0.14649173  0.56713975  0.23050671     0.29200
C2636       C  0.13281899  0.55646410  0.24461787    -0.21600
C2637       C  0.11189682  0.56424710  0.24793694    -0.09600
C2638       C  0.10577761  0.58415900  0.23954420     0.29300
F2639       F  0.08590100  0.59236007  0.24314305    -0.20100
H2640       H  0.11364111  0.60907579  0.21766134     0.17600
H2641       H  0.13772657  0.54113462  0.25116191     0.17600
F2642       F  0.16561772  0.55821494  0.22516226    -0.20100
C2643       C  0.12556432  0.48032491  0.26141102    -0.21600
C2644       C  0.10361940  0.47540587  0.26037483    -0.09600
C2645       C  0.09614384  0.46020985  0.24586617     0.29200
C2646       C  0.10950440  0.45375618  0.22945812    -0.21600
C2647       C  0.13020699  0.46243155  0.22781022    -0.09600
C2648       C  0.13903769  0.47387018  0.24489911     0.29300
F2649       F  0.15945499  0.48137772  0.24407284    -0.20100
H2650       H  0.13140907  0.49201470  0.27280878     0.17600
H2651       H  0.10291095  0.44390453  0.21678461     0.17600
F2652       F  0.07500389  0.45496002  0.24517838    -0.20100
C2653       C  0.06145261  0.62913832  0.15713934    -0.21600
C2654       C  0.07731185  0.61307280  0.15840322    -0.09600
C2655       C  0.07027327  0.59215100  0.16366708     0.29200
C2656       C  0.04836968  0.58777941  0.16806685    -0.21600
C2657       C  0.03248416  0.60389436  0.16690215    -0.09600
C2658       C  0.03951770  0.62468630  0.16101479     0.29300
F2659       F  0.02533781  0.64116711  0.15988763    -0.20100
H2660       H  0.06606305  0.64539411  0.15324252     0.17600
H2661       H  0.04390647  0.57172067  0.17284661     0.17600
F2662       F  0.08472468  0.57597074  0.16558743    -0.20100
C2663       C  0.01364684  0.67907159  0.23408466    -0.21600
C2664       C  0.02567233  0.66149133  0.22701893    -0.09600
C2665       C  0.04740927  0.65958054  0.23189548     0.29200
C2666       C  0.05607842  0.67335711  0.24687514    -0.21600
C2667       C  0.04272655  0.68837726  0.25700342    -0.09600
C2668       C  0.02190401  0.69214255  0.24980856     0.29300
F2669       F  0.00918706  0.70711270  0.25912096    -0.20100
H2670       H  0.99680188  0.68059085  0.22995370     0.17600
H2671       H  0.07248931  0.67081529  0.25220082     0.17600
F2672       F  0.05911112  0.64268076  0.22480230    -0.20100
C2673       C  0.16709696  0.59489483  0.06050402    -0.21600
C2674       C  0.15457780  0.60486057  0.04459972    -0.09600
C2675       C  0.13958184  0.62051600  0.05150846     0.29200
C2676       C  0.13725833  0.62572737  0.07354355    -0.21600
C2677       C  0.14992690  0.61570069  0.08943263    -0.09600
C2678       C  0.16502682  0.60020149  0.08228894     0.29300
F2679       F  0.17837598  0.59023128  0.09635585    -0.20100
H2680       H  0.17924887  0.58332135  0.05600766     0.17600
H2681       H  0.12536368  0.63749599  0.07816679     0.17600
F2682       F  0.12703798  0.63079739  0.03697002    -0.20100
C2683       C  0.23266233  0.67543587  0.01828947    -0.21600
C2684       C  0.22044724  0.65963006  0.02856211    -0.09600
C2685       C  0.22033980  0.65815947  0.05088921     0.29200
C2686       C  0.23386308  0.67144013  0.06270386    -0.21600
C2687       C  0.24761184  0.68584491  0.05213538    -0.09600
C2688       C  0.24636404  0.68834444  0.02995112     0.29300
F2689       F  0.25918799  0.70242930  0.01946997    -0.20100
H2690       H  0.23271572  0.67672957  0.00100312     0.17600
H2691       H  0.23482306  0.66930867  0.07987735     0.17600
F2692       F  0.20898141  0.64261234  0.06098002    -0.20100
C2693       C  0.88413459  0.46311921  0.16901129    -0.21600
C2694       C  0.87800251  0.44188021  0.16393830    -0.09600
C2695       C  0.89473320  0.42691728  0.16100680     0.29200
C2696       C  0.91653425  0.43298627  0.16383329    -0.21600
C2697       C  0.92243716  0.45413087  0.16961117    -0.09600
C2698       C  0.90572420  0.46914276  0.17178000     0.29300
F2699       F  0.91010047  0.48971807  0.17712551    -0.20100
H2700       H  0.87204604  0.47540784  0.17116072     0.17600
H2701       H  0.92882609  0.42081375  0.16223501     0.17600
F2702       F  0.89012100  0.40633573  0.15593917    -0.20100
C2703       C  0.88313772  0.20207654  0.42632424    -0.21600
C2704       C  0.87454524  0.19804339  0.40569172    -0.09600
C2705       C  0.88916590  0.19613603  0.38871075     0.29200
C2706       C  0.91131281  0.19927759  0.39210955    -0.21600
C2707       C  0.91983465  0.20443348  0.41250504    -0.09600
C2708       C  0.90537434  0.20516440  0.42973713     0.29300
F2709       F  0.91243521  0.21023829  0.44963083    -0.20100
H2710       H  0.87249498  0.20343171  0.43992387     0.17600
H2711       H  0.92179743  0.19865027  0.37833118     0.17600
F2712       F  0.88204043  0.19242399  0.36853358    -0.20100
C2713       C  0.93042355  0.29077187  0.32559077    -0.21600
C2714       C  0.91323897  0.30252325  0.33381062    -0.09600
C2715       C  0.90490681  0.29775807  0.35409396     0.29200
C2716       C  0.91523143  0.28305548  0.36705079    -0.21600
C2717       C  0.93435117  0.27362024  0.36017839    -0.09600
C2718       C  0.94112538  0.27622390  0.33884148     0.29300
F2719       F  0.95953230  0.26702548  0.33176036    -0.20100
H2720       H  0.93691138  0.29450362  0.30995404     0.17600
H2721       H  0.90963093  0.28088653  0.38332164     0.17600
F2722       F  0.88827919  0.30917826  0.36230985    -0.20100
C2723       C  0.92170594  0.37075612  0.24844698    -0.21600
C2724       C  0.90485727  0.37715321  0.26158794    -0.09600
C2725       C  0.89546336  0.39746257  0.25935371     0.29200
C2726       C  0.90497552  0.41244536  0.24602888    -0.21600
C2727       C  0.92319024  0.40670003  0.23445077    -0.09600
C2728       C  0.93061867  0.38548308  0.23441048     0.29300
F2729       F  0.94820353  0.37986272  0.22291419    -0.20100
H2730       H  0.92866412  0.35492257  0.24996991     0.17600
H2731       H  0.89942648  0.42888783  0.24625495     0.17600
F2732       F  0.87861456  0.40343686  0.27173856    -0.20100
C2733       C  0.81352842  0.38875856  0.26386697    -0.21600
C2734       C  0.82777708  0.37149694  0.26641004    -0.09600
C2735       C  0.83600160  0.36198059  0.24750888     0.29200
C2736       C  0.83081996  0.37009903  0.22697226    -0.21600
C2737       C  0.81645965  0.38728710  0.22443663    -0.09600
C2738       C  0.80752958  0.39618997  0.24334060     0.29300
F2739       F  0.79319661  0.41254088  0.24210835    -0.15300
H2740       H  0.80681051  0.39644436  0.27784565     0.17600
H2741       H  0.83781450  0.36266201  0.21299753     0.17600
F2742       F  0.84957906  0.34502906  0.24877148    -0.20100
C2743       C  0.80283052  0.27528385  0.34959174    -0.21600
C2744       C  0.81669720  0.25741777  0.35236457    -0.09600
C2745       C  0.83883519  0.26100117  0.34999731     0.29200
C2746       C  0.84663815  0.28132737  0.34450364    -0.21600
C2747       C  0.83295398  0.29919484  0.34136556    -0.09600
C2748       C  0.81078386  0.29587112  0.34415325     0.29300
F2749       F  0.79674753  0.31217561  0.34082847    -0.20100
H2750       H  0.78567601  0.27332653  0.35159791     0.17600
H2751       H  0.86378131  0.28291100  0.34230119     0.17600
F2752       F  0.85318360  0.24490991  0.35316234    -0.20100
C2753       C  0.72059880  0.17220044  0.32218091    -0.21600
C2754       C  0.70159394  0.17264340  0.33467090    -0.09600
C2755       C  0.70346191  0.17918842  0.35603687     0.29200
C2756       C  0.72340435  0.18487469  0.36458328    -0.21600
C2757       C  0.74253800  0.18447680  0.35236439    -0.09600
C2758       C  0.74082294  0.17806859  0.33085728     0.29300
F2759       F  0.75845142  0.17772827  0.31816815    -0.20100
H2760       H  0.71987891  0.16701512  0.30569080     0.17600
H2761       H  0.72368205  0.18971665  0.38118492     0.17600
F2762       F  0.68602156  0.17992348  0.36899346    -0.20100
C2763       C  0.62175729  0.18812588  0.25725507    -0.21600
C2764       C  0.63054944  0.16746058  0.25933352    -0.09600
C2765       C  0.63362940  0.15560321  0.24009284     0.29200
C2766       C  0.62824592  0.16402813  0.22003443    -0.21600
C2767       C  0.61959730  0.18456292  0.21785066    -0.09600
C2768       C  0.61633547  0.19659981  0.23683155     0.29300
F2769       F  0.60738247  0.21638344  0.23578156    -0.20100
H2770       H  0.61913455  0.19776855  0.27138148     0.17600
H2771       H  0.63074272  0.15415910  0.20602578     0.17600
F2772       F  0.64189283  0.13547279  0.24029543    -0.20100
C2773       C  0.74624420  0.36627400  0.13885797    -0.21600
C2774       C  0.74663933  0.38658973  0.14846322    -0.09600
C2775       C  0.72668012  0.39768948  0.15021763     0.29200
C2776       C  0.70744938  0.38879296  0.14288897    -0.21600
C2777       C  0.70694025  0.36853496  0.13354355    -0.09600
C2778       C  0.72669397  0.35732549  0.13147872     0.29300
F2779       F  0.72729491  0.33797384  0.12170447    -0.20100
H2780       H  0.76102982  0.35734335  0.13696298     0.17600
H2781       H  0.69279057  0.39801569  0.14445785     0.17600
F2782       F  0.72540186  0.41755854  0.15887080    -0.20100
C2783       C  0.61626632  0.29560371  0.14142879    -0.21600
C2784       C  0.63577313  0.29526336  0.13054921    -0.09600
C2785       C  0.64613674  0.27518391  0.12762568     0.29200
C2786       C  0.63674470  0.25601890  0.13479153    -0.21600
C2787       C  0.61677163  0.25624581  0.14499344    -0.09600
C2788       C  0.60679678  0.27650881  0.14847527     0.29300
F2789       F  0.58747776  0.27811012  0.15835108    -0.20100
H2790       H  0.60780024  0.31058640  0.14364112     0.17600
H2791       H  0.64496490  0.24099865  0.13203780     0.17600
F2792       F  0.66534073  0.27396903  0.11745778    -0.20100
C2793       C  0.40734719  0.09610486  0.31956025    -0.21600
C2794       C  0.42102306  0.11379825  0.31691115    -0.09600
C2795       C  0.41193317  0.13447080  0.31966013     0.29200
C2796       C  0.38992548  0.13722035  0.32374505    -0.21600
C2797       C  0.37607441  0.11962434  0.32554545    -0.09600
C2798       C  0.38523044  0.09890360  0.32384811     0.29300
F2799       F  0.37264886  0.08125470  0.32520397    -0.20100
H2800       H  0.41354738  0.08005863  0.31731491     0.17600
H2801       H  0.38363691  0.15333637  0.32514777     0.17600
F2802       F  0.42417519  0.15233461  0.31779332    -0.20100
C2803       C  0.53636135  0.12772359  0.32274942    -0.21600
C2804       C  0.52981952  0.10622699  0.32004579    -0.09600
C2805       C  0.54567858  0.09023066  0.32156474     0.29200
C2806       C  0.56736411  0.09566405  0.32500095    -0.21600
C2807       C  0.57407200  0.11721394  0.32647925    -0.09600
C2808       C  0.55814128  0.13320410  0.32555957     0.29300
F2809       F  0.56355793  0.15416074  0.32723324    -0.20100
H2810       H  0.52467474  0.14053149  0.32165392     0.17600
H2811       H  0.57910625  0.08288106  0.32574390     0.17600
F2812       F  0.54031246  0.06930904  0.31942093    -0.20100
C2813       C  0.53133923  0.17235702  0.25680116    -0.21600
C2814       C  0.53196081  0.15021638  0.25338803    -0.09600
C2815       C  0.54206112  0.14189958  0.23524193     0.29200
C2816       C  0.54753830  0.15557934  0.21874914    -0.21600
C2817       C  0.54369693  0.17750506  0.22073833    -0.09600
C2818       C  0.53729342  0.18614281  0.24034244     0.29300
F2819       F  0.53526645  0.20761796  0.24289135    -0.20100
H2820       H  0.52350255  0.17887357  0.27082937     0.17600
H2821       H  0.55402444  0.14893125  0.20414075     0.17600
F2822       F  0.54292924  0.12043671  0.23193855    -0.20100
C2823       C  0.45274430  0.18476269  0.24177450    -0.21600
C2824       C  0.44257889  0.16580339  0.24823893    -0.09600
C2825       C  0.42082313  0.16249626  0.24377561     0.29200
C2826       C  0.41011792  0.17674285  0.23046445    -0.21600
C2827       C  0.42120200  0.19406849  0.22152284    -0.09600
C2828       C  0.44209430  0.19886037  0.22811385     0.29300
F2829       F  0.45303056  0.21533893  0.21911045    -0.20100
H2830       H  0.46958528  0.18738839  0.24524753     0.17600
H2831       H  0.39394763  0.17297973  0.22528607     0.17600
F2832       F  0.41061681  0.14455978  0.25062635    -0.20100
C2833       C  0.41992829  0.36257801  0.08892236    -0.21600
C2834       C  0.42521784  0.35563622  0.06796529    -0.09600
C2835       C  0.40801578  0.35152609  0.05396001     0.29200
C2836       C  0.38662755  0.35364824  0.06074252    -0.21600
C2837       C  0.38111420  0.35995005  0.08179925    -0.09600
C2838       C  0.39826026  0.36475974  0.09576200     0.29300
F2839       F  0.39421801  0.37091106  0.11614835    -0.20100
H2840       H  0.43262211  0.36560285  0.10036363     0.17600
H2841       H  0.37420747  0.34999441  0.04918645     0.17600
F2842       F  0.41171527  0.34472715  0.03369846    -0.20100
C2843       C  0.54917534  0.35300037  0.05288122    -0.21600
C2844       C  0.53515507  0.35164738  0.07044639    -0.09600
C2845       C  0.54399621  0.35504762  0.09108565     0.29200
C2846       C  0.56611438  0.35810341  0.09408633    -0.21600
C2847       C  0.58033003  0.35838534  0.07673050    -0.09600
C2848       C  0.57143969  0.35646311  0.05591181     0.29300
F2849       F  0.58436049  0.35679879  0.03847416    -0.20100
H2850       H  0.54311391  0.35031142  0.03686486     0.17600
H2851       H  0.57217843  0.35995311  0.11022681     0.17600
F2852       F  0.53131347  0.35477147  0.10871623    -0.20100
C2853       C  0.54379017  0.25628492  0.12733136    -0.21600
C2854       C  0.53470943  0.25183239  0.14735182    -0.09600
C2855       C  0.51636148  0.26264109  0.15417507     0.29200
C2856       C  0.50584140  0.27625703  0.13993915    -0.21600
C2857       C  0.51350347  0.27857544  0.11892789    -0.09600
C2858       C  0.53308828  0.26940173  0.11298962     0.29300
F2859       F  0.54097896  0.27179883  0.09288941    -0.20100
H2860       H  0.55808169  0.24790186  0.12206207     0.17600
H2861       H  0.49072964  0.28330159  0.14466801     0.17600
F2862       F  0.50730029  0.25804599  0.17336217    -0.20100
C2863       C  0.40952170  0.28130254  0.11181963    -0.21600
C2864       C  0.42819007  0.29249632  0.11688485    -0.09600
C2865       C  0.43721227  0.29114269  0.13743761     0.29200
C2866       C  0.42943769  0.27613232  0.15185059    -0.21600
C2867       C  0.41201550  0.26349665  0.14595943    -0.09600
C2868       C  0.40113730  0.26701727  0.12658107     0.29300
F2869       F  0.38375533  0.25509239  0.12115143    -0.20100
H2870       H  0.40276424  0.28206146  0.09585092     0.17600
H2871       H  0.43745128  0.27374009  0.16706423     0.17600
F2872       F  0.45512287  0.30239771  0.14247753    -0.20100
C2873       C  0.58062615  0.20171754  0.05416413    -0.21600
C2874       C  0.55977691  0.20210675  0.04507045    -0.09600
C2875       C  0.54258883  0.19616982  0.05849062     0.29200
C2876       C  0.54627908  0.19115309  0.08038558    -0.21600
C2877       C  0.56712820  0.19204684  0.08953478    -0.09600
C2878       C  0.58425689  0.19697482  0.07579603     0.29300
F2879       F  0.60471864  0.19772437  0.08327593    -0.20100
H2880       H  0.59449471  0.20588938  0.04463147     0.17600
H2881       H  0.53264606  0.18730011  0.09037445     0.17600
F2882       F  0.52221027  0.19593270  0.05078598    -0.20100
C2883       C  0.63224179  0.27473154  0.01713980    -0.21600
C2884       C  0.61206535  0.27075201  0.02631825    -0.09600
C2885       C  0.60830204  0.27569428  0.04777682     0.29200
C2886       C  0.62365032  0.28709965  0.05907249    -0.21600
C2887       C  0.64234054  0.29405439  0.04873006    -0.09600
C2888       C  0.64739912  0.28662478  0.02831082     0.29300
F2889       F  0.66536524  0.29347406  0.01814508    -0.20100
H2890       H  0.63536377  0.27066020  0.00059157     0.17600
H2891       H  0.61974226  0.29286830  0.07494013     0.17600
F2892       F  0.58924073  0.27103469  0.05717519    -0.20100
C2893       C  0.54217544  0.09352368  0.16296387    -0.21600
C2894       C  0.55938394  0.07925897  0.16537025    -0.09600
C2895       C  0.58046775  0.08729639  0.16198555     0.29200
C2896       C  0.58414744  0.10917275  0.15812519    -0.21600
C2897       C  0.56703243  0.12368945  0.15748790    -0.09600
C2898       C  0.54586428  0.11538129  0.15902862     0.29300
F2899       F  0.52855241  0.12853283  0.15740586    -0.20100
H2900       H  0.52587316  0.08803930  0.16537128     0.17600
H2901       H  0.60049242  0.11488535  0.15675970     0.17600
F2902       F  0.59782193  0.07418934  0.16347622    -0.20100
C2903       C  0.62743542  0.05486862  0.24242735    -0.21600
C2904       C  0.60714315  0.06321569  0.23716505    -0.09600
C2905       C  0.60163109  0.08413549  0.24297032     0.29200
C2906       C  0.61507838  0.09545707  0.25644452    -0.21600
C2907       C  0.63394797  0.08593017  0.26411900    -0.09600
C2908       C  0.64086953  0.06621049  0.25614662     0.29300
F2909       F  0.65899384  0.05678948  0.26380156    -0.20100
H2910       H  0.63180210  0.03870382  0.23795331     0.17600
H2911       H  0.60976846  0.11078716  0.26258035     0.17600
F2912       F  0.58237388  0.09272638  0.23735174    -0.20100
C2913       C  0.88770072  0.63381067  0.17209010    -0.21600
C2914       C  0.87590888  0.61794391  0.16150060    -0.09600
C2915       C  0.88691620  0.59856942  0.15664860     0.29200
C2916       C  0.90885758  0.59544455  0.16230624    -0.21600
C2917       C  0.92060443  0.61147105  0.17294500    -0.09600
C2918       C  0.90934442  0.63074682  0.17779664     0.29300
F2919       F  0.91895361  0.64680632  0.18881663    -0.20100
H2920       H  0.87997370  0.64869819  0.17653533     0.17600
H2921       H  0.91658926  0.58040670  0.15844304     0.17600
F2922       F  0.87647259  0.58242941  0.14658758    -0.20100
C2923       C  0.74314631  0.68766746  0.13563134    -0.21600
C2924       C  0.74524014  0.66923577  0.14839780    -0.09600
C2925       C  0.72610667  0.65881633  0.15482989     0.29200
C2926       C  0.70575250  0.66615417  0.14809679    -0.21600
C2927       C  0.70357522  0.68477819  0.13566188    -0.09600
C2928       C  0.72266735  0.69562276  0.12974232     0.29300
F2929       F  0.72164639  0.71373316  0.11775706    -0.20100
H2930       H  0.75736793  0.69621920  0.13058543     0.17600
H2931       H  0.69159851  0.65733301  0.15287118     0.17600
F2932       F  0.72698774  0.64113018  0.16741567    -0.20100
C2933       C  0.90919569  0.70618143  0.39732814    -0.21600
C2934       C  0.88779685  0.70100084  0.39163149    -0.09600
C2935       C  0.87350019  0.69631476  0.40841578     0.29200
C2936       C  0.88031382  0.69777109  0.43002659    -0.21600
C2937       C  0.90154243  0.70389710  0.43556274    -0.09600
C2938       C  0.91595285  0.70763134  0.41871058     0.29300
F2939       F  0.93654691  0.71344091  0.42277300    -0.20100
H2940       H  0.92098576  0.70951686  0.38507860     0.17600
H2941       H  0.86861410  0.69498951  0.44249258     0.17600
F2942       F  0.85280433  0.69113276  0.40407988    -0.20100
C2943       C  0.94516070  0.68328127  0.23915308    -0.21600
C2944       C  0.94002874  0.66141906  0.23780805    -0.09600
C2945       C  0.92057840  0.65398093  0.24620823     0.29200
C2946       C  0.90813672  0.66745033  0.25858047    -0.21600
C2947       C  0.91507952  0.68830329  0.26284911    -0.09600
C2948       C  0.93265756  0.69682731  0.25182920     0.29300
F2949       F  0.93914941  0.71723769  0.25537671    -0.20100
H2950       H  0.95986005  0.68937253  0.23223059     0.17600
H2951       H  0.89421498  0.66091347  0.26668532     0.17600
F2952       F  0.91467759  0.63316664  0.24418508    -0.20100
C2953       C  0.80939271  0.66162847  0.24135411    -0.21600
C2954       C  0.81656240  0.66947071  0.22119663    -0.09600
C2955       C  0.83075327  0.68680996  0.22124651     0.29200
C2956       C  0.83809994  0.69532302  0.24076252    -0.21600
C2957       C  0.83164273  0.68683147  0.26088682    -0.09600
C2958       C  0.81678110  0.67009369  0.26083611     0.29300
F2959       F  0.81017609  0.66115325  0.27948721    -0.20100
H2960       H  0.79831018  0.64833468  0.24219916     0.17600
H2961       H  0.84947213  0.70838227  0.24003437     0.17600
F2962       F  0.83820351  0.69503372  0.20258435    -0.20100
C2963       C  0.74730544  0.89254741  0.42697692    -0.21600
C2964       C  0.75163847  0.87154104  0.43360496    -0.09600
C2965       C  0.74114110  0.86293378  0.45142664     0.29200
C2966       C  0.72798227  0.87618054  0.46376481    -0.21600
C2967       C  0.72565441  0.89792515  0.45832753    -0.09600
C2968       C  0.73449910  0.90574359  0.43927898     0.29300
F2969       F  0.73196129  0.92652195  0.43332706    -0.20100
H2970       H  0.75533944  0.89928069  0.41314344     0.17600
H2971       H  0.72114120  0.86997647  0.47843274     0.17600
F2972       F  0.74538637  0.84267116  0.45809765    -0.20100
C2973       C  0.84019709  0.79031908  0.40981707    -0.21600
C2974       C  0.82227029  0.79643714  0.42196695    -0.09600
C2975       C  0.81772629  0.78626755  0.44130003     0.29200
C2976       C  0.83218312  0.77138912  0.44937521    -0.21600
C2977       C  0.85166533  0.76772244  0.43884651    -0.09600
C2978       C  0.85521874  0.77619701  0.41846801     0.29300
F2979       F  0.87405643  0.77268530  0.40816275    -0.20100
H2980       H  0.84357476  0.79805662  0.39463622     0.17600
H2981       H  0.82935044  0.76454125  0.46508165     0.17600
F2982       F  0.80019851  0.79179088  0.45291655    -0.20100
C2983       C  0.83344435  0.79985526  0.32995730    -0.21600
C2984       C  0.81635557  0.80253064  0.34429159    -0.09600
C2985       C  0.80607232  0.78377842  0.35196452     0.29200
C2986       C  0.81323140  0.76315520  0.34601275    -0.21600
C2987       C  0.83009206  0.76053307  0.33137575    -0.09600
C2988       C  0.83981524  0.77931631  0.32312290     0.29300
F2989       F  0.85599508  0.77792955  0.30872589    -0.20100
H2990       H  0.84175781  0.81374935  0.32376558     0.17600
H2991       H  0.80529801  0.74921386  0.35258112     0.17600
F2992       F  0.78933092  0.78526499  0.36571716    -0.20100
C2993       C  0.57314179  0.93987640  0.15987168    -0.21600
C2994       C  0.55685179  0.92476582  0.16378215    -0.09600
C2995       C  0.53629479  0.93292689  0.16931053     0.29200
C2996       C  0.53258817  0.95508408  0.17164134    -0.21600
C2997       C  0.54898632  0.97016867  0.16835608    -0.09600
C2998       C  0.56936211  0.96213537  0.16210278     0.29300
F2999       F  0.58605182  0.97570257  0.15898111    -0.20100
H3000       H  0.58906996  0.93445248  0.15551904     0.17600
H3001       H  0.51679381  0.96041106  0.17656603     0.17600
F3002       F  0.51953510  0.91950790  0.17274842    -0.20100
C3003       C  0.62575148  0.79570409  0.13320149    -0.21600
C3004       C  0.61373658  0.79468078  0.15200199    -0.09600
C3005       C  0.61036489  0.77416655  0.16132753     0.29200
C3006       C  0.61816721  0.75534426  0.15161777    -0.21600
C3007       C  0.62961018  0.75629143  0.13237034    -0.09600
C3008       C  0.63356963  0.77699503  0.12350491     0.29300
F3009       F  0.64484121  0.77945780  0.10511089    -0.20100
H3010       H  0.62846453  0.81099953  0.12548344     0.17600
H3011       H  0.61504662  0.74001512  0.15909333     0.17600
F3012       F  0.59929835  0.77218584  0.17989943    -0.20100
C3013       C  0.64296115  0.92272460  0.40692679    -0.21600
C3014       C  0.64536613  0.93995030  0.39265028    -0.09600
C3015       C  0.65006875  0.96030360  0.40159960     0.29200
C3016       C  0.65325871  0.96291279  0.42384171    -0.21600
C3017       C  0.65203629  0.94540226  0.43793875    -0.09600
C3018       C  0.64633632  0.92530409  0.42909762     0.29300
F3019       F  0.64458684  0.90780452  0.44187906    -0.20100
H3020       H  0.63918071  0.90695514  0.40085599     0.17600
H3021       H  0.65781387  0.97849447  0.42987711     0.17600
F3022       F  0.65202801  0.97779748  0.38883772    -0.20100
C3023       C  0.61323513  0.95098271  0.25853818    -0.21600
C3024       C  0.63292608  0.96169092  0.26086795    -0.09600
C3025       C  0.63896614  0.97744094  0.24620567     0.29200
C3026       C  0.62372627  0.98498639  0.23168137    -0.21600
C3027       C  0.60279521  0.97667810  0.23203310    -0.09600
C3028       C  0.59804378  0.95856495  0.24415224     0.29300
F3029       F  0.57787953  0.95033922  0.24435453    -0.20100
H3030       H  0.60865517  0.93846532  0.26966685     0.17600
H3031       H  0.62736030  0.99908492  0.22223529     0.17600
F3032       F  0.65812489  0.98758282  0.24805917    -0.20100
C3033       C  0.72071680  0.88164410  0.32018252    -0.21600
C3034       C  0.70379243  0.88678556  0.33442958    -0.09600
C3035       C  0.70890311  0.88827835  0.35630202     0.29200
C3036       C  0.72982200  0.88425308  0.36362576    -0.21600
C3037       C  0.74661705  0.87832427  0.34967284    -0.09600
C3038       C  0.74182156  0.87729187  0.32766964     0.29300
F3039       F  0.75712691  0.87113296  0.31355426    -0.20100
H3040       H  0.71755447  0.88073647  0.30316721     0.17600
H3041       H  0.73276656  0.88520753  0.38068405     0.17600
F3042       F  0.69373078  0.89383933  0.37081870    -0.20100
C3043       C  0.63118274  0.89712237  0.24244493    -0.21600
C3044       C  0.62824274  0.88663067  0.26235091    -0.09600
C3045       C  0.61755878  0.86683019  0.26226666     0.29200
C3046       C  0.61031671  0.85793023  0.24278123    -0.21600
C3047       C  0.61339809  0.86862888  0.22300942    -0.09600
C3048       C  0.62391540  0.88841669  0.22323225     0.29300
F3049       F  0.62728375  0.89951887  0.20484992    -0.20100
H3050       H  0.63922566  0.91244473  0.24151431     0.17600
H3051       H  0.60188983  0.84279332  0.24322894     0.17600
F3052       F  0.61399606  0.85615529  0.28083776    -0.20100
C3053       C  0.90690178  0.46242953  0.31464964    -0.21600
C3054       C  0.89039725  0.47741015  0.31758944    -0.09600
C3055       C  0.87036753  0.46958198  0.32502134     0.29200
C3056       C  0.86674448  0.44741542  0.32821134    -0.21600
C3057       C  0.88286587  0.43224837  0.32387284    -0.09600
C3058       C  0.90330124  0.44033158  0.31764291     0.29300
F3059       F  0.91995725  0.42683925  0.31381909    -0.20100
H3060       H  0.92236840  0.46768708  0.30875199     0.17600
H3061       H  0.85103479  0.44209913  0.33334353     0.17600
F3062       F  0.85397200  0.48342010  0.32868448    -0.20100
C3063       C  0.91060750  0.60204379  0.32496561    -0.21600
C3064       C  0.89434702  0.58670221  0.32231310    -0.09600
C3065       C  0.87279395  0.59402534  0.32365612     0.29200
C3066       C  0.86792444  0.61605191  0.32585057    -0.21600
C3067       C  0.88425342  0.63147324  0.32784116    -0.09600
C3068       C  0.90574426  0.62388188  0.32814849     0.29300
F3069       F  0.92234335  0.63767701  0.33071632    -0.20100
H3070       H  0.92729422  0.59717774  0.32418799     0.17600
H3071       H  0.85125656  0.62104808  0.32589325     0.17600
F3072       F  0.85623149  0.58005755  0.32191782    -0.20100
C3073       C  0.82455363  0.57647705  0.25626116    -0.21600
C3074       C  0.84531332  0.58526250  0.25673294    -0.09600
C3075       C  0.85049406  0.60226666  0.24320879     0.29200
C3076       C  0.83675081  0.60731538  0.22644904    -0.21600
C3077       C  0.81778111  0.59556910  0.22349427    -0.09600
C3078       C  0.81066630  0.58159027  0.23944751     0.29300
F3079       F  0.79198751  0.57068014  0.23711745    -0.20100
H3080       H  0.82046626  0.56325720  0.26673000     0.17600
H3081       H  0.84198327  0.61876381  0.21450345     0.17600
F3082       F  0.87033252  0.61120344  0.24390820    -0.20100
C3083       C  0.83465503  0.48506955  0.24756975    -0.21600
C3084       C  0.84336645  0.50392720  0.23940632    -0.09600
C3085       C  0.83713511  0.51188067  0.21945156     0.29200
C3086       C  0.82333330  0.50005541  0.20685826    -0.21600
C3087       C  0.81607118  0.48002396  0.21398133    -0.09600
C3088       C  0.82099518  0.47298365  0.23485356     0.29300
F3089       F  0.81381061  0.45394608  0.24245929    -0.20100
H3090       H  0.83932249  0.47921322  0.26325417     0.17600
H3091       H  0.81948499  0.50599136  0.19099733     0.17600
F3092       F  0.84512814  0.53062867  0.21186049    -0.20100
C3093       C  0.40455619  0.97062099  0.32076539    -0.21600
C3094       C  0.42099355  0.95523573  0.32241276    -0.09600
C3095       C  0.41495083  0.93407145  0.32802006     0.29200
C3096       C  0.39318144  0.92851515  0.33099311    -0.21600
C3097       C  0.37679511  0.94390962  0.32909650    -0.09600
C3098       C  0.38290508  0.96518399  0.32423725     0.29300
F3099       F  0.36780140  0.98069848  0.32178508    -0.20100
H3100       H  0.40838751  0.98689914  0.31617919     0.17600
H3101       H  0.38913935  0.91208232  0.33475956     0.17600
F3102       F  0.42995913  0.91837839  0.32970173    -0.20100
C3103       C  0.53862373  0.92680264  0.31656675    -0.21600
C3104       C  0.53021947  0.94785579  0.31539444    -0.09600
C3105       C  0.54464413  0.96481826  0.31906076     0.29200
C3106       C  0.56665489  0.96066143  0.32334170    -0.21600
C3107       C  0.57502579  0.93953348  0.32382894    -0.09600
C3108       C  0.56046483  0.92268111  0.32049600     0.29300
F3109       F  0.56728700  0.90203719  0.32069500    -0.20100
H3110       H  0.52828035  0.91317021  0.31379959     0.17600
H3111       H  0.57733213  0.97412602  0.32560379     0.17600
F3112       F  0.53779364  0.98539177  0.31754043    -0.20100
C3113       C  0.52556458  0.89908049  0.24411278    -0.21600
C3114       C  0.50318566  0.89846846  0.24419892    -0.09600
C3115       C  0.49199273  0.88243850  0.23328238     0.29200
C3116       C  0.50327073  0.86757938  0.22129923    -0.21600
C3117       C  0.52569018  0.86858887  0.22049922    -0.09600
C3118       C  0.53690843  0.88400751  0.23244607     0.29300
F3119       F  0.55862111  0.88567492  0.23134304    -0.20100
H3120       H  0.53413306  0.91162977  0.25246499     0.17600
H3121       H  0.49452299  0.85590511  0.21193280     0.17600
F3122       F  0.47020631  0.88223357  0.23288277    -0.20100
C3123       C  0.42730903  0.88513062  0.26139525    -0.21600
C3124       C  0.41955597  0.90616634  0.25961986    -0.09600
C3125       C  0.40376853  0.91134301  0.24458488     0.29200
C3126       C  0.39837195  0.89645332  0.22917450    -0.21600
C3127       C  0.40887991  0.87664566  0.22886079    -0.09600
C3128       C  0.42224662  0.87032740  0.24565077     0.29300
F3129       F  0.43149573  0.85063546  0.24589542    -0.20100
H3130       H  0.43973126  0.88116826  0.27294247     0.17600
H3131       H  0.38709451  0.90085702  0.21665704     0.17600
F3132       F  0.39623501  0.93167430  0.24285060    -0.20100
C3133       C  0.14052226  0.75684952  0.63299876    -0.21600
C3134       C  0.12532716  0.75317587  0.64908851    -0.09600
C3135       C  0.11713289  0.77132353  0.66003823     0.29200
C3136       C  0.12318379  0.79234063  0.65427185    -0.21600
C3137       C  0.13868406  0.79600502  0.63844051    -0.09600
C3138       C  0.14767226  0.77776335  0.62826589     0.29300
F3139       F  0.16342977  0.77996864  0.61353083    -0.20100
H3140       H  0.14738517  0.74343360  0.62446265     0.17600
H3141       H  0.11613021  0.80576640  0.66263581     0.17600
F3142       F  0.10299021  0.76888889  0.67631290    -0.20100
C3143       C  0.39438489  0.91936667  0.66237473    -0.21600
C3144       C  0.37966296  0.93631717  0.66077498    -0.09600
C3145       C  0.38775596  0.95743743  0.66250033     0.29200
C3146       C  0.40971585  0.96120305  0.66690606    -0.21600
C3147       C  0.42421807  0.94409000  0.66954014    -0.09600
C3148       C  0.41622379  0.92308613  0.66648458     0.29300
F3149       F  0.42942568  0.90583511  0.66807523    -0.20100
H3150       H  0.38890545  0.90299517  0.66084585     0.17600
H3151       H  0.41513448  0.97748668  0.66928585     0.17600
F3152       F  0.37428701  0.97448899  0.66113460    -0.20100
C3153       C  0.23365562  0.88198059  0.66686081    -0.21600
C3154       C  0.25230094  0.88143394  0.65384690    -0.09600
C3155       C  0.24955740  0.87601693  0.63223616     0.29200
C3156       C  0.22924265  0.87097152  0.62412375    -0.21600
C3157       C  0.21054110  0.87094747  0.63700309    -0.09600
C3158       C  0.21303342  0.87682210  0.65859851     0.29300
F3159       F  0.19577767  0.87727264  0.67177514    -0.20100
H3160       H  0.23499065  0.88661104  0.68348647     0.17600
H3161       H  0.22834859  0.86677221  0.60735901     0.17600
F3162       F  0.26652753  0.87560508  0.61865692    -0.20100
C3163       C  0.14740949  0.59300489  0.89508821    -0.21600
C3164       C  0.14283348  0.61359070  0.88663910    -0.09600
C3165       C  0.14002679  0.63030411  0.90143295     0.29200
C3166       C  0.14286635  0.62682755  0.92355832    -0.21600
C3167       C  0.14885150  0.60662940  0.93206409    -0.09600
C3168       C  0.15054838  0.58955691  0.91738274     0.29300
F3169       F  0.15663346  0.56985659  0.92429880    -0.20100
H3170       H  0.14960500  0.57966399  0.88427748     0.17600
H3171       H  0.14126838  0.64047264  0.93409352     0.17600
F3172       F  0.13474353  0.65024750  0.89452446    -0.20100
C3173       C  0.15261954  0.67050752  0.74125116    -0.21600
C3174       C  0.13837680  0.66574588  0.75829583    -0.09600
C3175       C  0.11638468  0.66423238  0.75329951     0.29200
C3176       C  0.10890866  0.66815316  0.73254127    -0.21600
C3177       C  0.12272541  0.67430096  0.71576737    -0.09600
C3178       C  0.14490190  0.67494374  0.72025445     0.29300
F3179       F  0.15894412  0.68086194  0.70478920    -0.20100
H3180       H  0.16971180  0.67123932  0.74426934     0.17600
H3181       H  0.09179415  0.66734097  0.72982446     0.17600
F3182       F  0.10177679  0.65898648  0.76850114    -0.20100
C3183       C  0.38319508  0.69733297  0.92965857    -0.21600
C3184       C  0.37669134  0.69438214  0.90819127    -0.09600
C3185       C  0.39289961  0.69247715  0.89263444     0.29200
C3186       C  0.41474581  0.69458565  0.89837374    -0.21600
C3187       C  0.42106892  0.69884450  0.91969971    -0.09600
C3188       C  0.40490404  0.69955531  0.93534938     0.29300
F3189       F  0.40994589  0.70315108  0.95616223    -0.20100
H3190       H  0.37132474  0.69845677  0.94223484     0.17600
H3191       H  0.42667058  0.69410244  0.88581275     0.17600
F3192       F  0.38768779  0.68969724  0.87174350    -0.20100
C3193       C  0.23853772  0.66854147  0.91356138    -0.21600
C3194       C  0.24370055  0.68772906  0.92390174    -0.09600
C3195       C  0.23144399  0.69495729  0.94108825     0.29200
C3196       C  0.21693275  0.68094796  0.95049490    -0.21600
C3197       C  0.21516420  0.65989385  0.94273580    -0.09600
C3198       C  0.22425442  0.65447726  0.92303510     0.29300
F3199       F  0.22154614  0.63469733  0.91452163    -0.20100
H3200       H  0.24762461  0.66327910  0.89975695     0.17600
H3201       H  0.20951355  0.68555760  0.96545117     0.17600
F3202       F  0.23599128  0.71383910  0.95078048    -0.20100
C3203       C  0.23036027  0.65711414  0.82868347    -0.21600
C3204       C  0.20984917  0.66624945  0.83264264    -0.09600
C3205       C  0.20929264  0.68598894  0.84333505     0.29200
C3206       C  0.22846711  0.69560643  0.85054051    -0.21600
C3207       C  0.24887099  0.68605869  0.84718788    -0.09600
C3208       C  0.24950319  0.66679208  0.83574853     0.29300
F3209       F  0.26847645  0.65666201  0.83232922    -0.20100
H3210       H  0.23171450  0.64204367  0.82027805     0.17600
H3211       H  0.22725509  0.71048976  0.85931235     0.17600
F3212       F  0.19028186  0.69583536  0.84726502    -0.20100
C3213       C  0.40162495  0.79820711  0.86808658    -0.21600
C3214       C  0.41318860  0.79883959  0.84884874    -0.09600
C3215       C  0.42146894  0.77991917  0.84016948     0.29200
C3216       C  0.42175478  0.76153370  0.85280186    -0.21600
C3217       C  0.41516159  0.76294994  0.87419896    -0.09600
C3218       C  0.40192431  0.77982546  0.88048735     0.29300
F3219       F  0.39412996  0.78060017  0.90072306    -0.20100
H3220       H  0.39370616  0.81238024  0.87423401     0.17600
H3221       H  0.43130324  0.74802018  0.84753050     0.17600
F3222       F  0.43153752  0.77988611  0.82093605    -0.20100
C3223       C  0.43130869  0.86757016  0.75456830    -0.21600
C3224       C  0.43819019  0.86725603  0.77602536    -0.09600
C3225       C  0.45647065  0.87883976  0.78221776     0.29200
C3226       C  0.46571530  0.89286303  0.76784941    -0.21600
C3227       C  0.45715439  0.89493508  0.74728887    -0.09600
C3228       C  0.44087130  0.88145833  0.74011122     0.29300
F3229       F  0.43302683  0.88314854  0.71989645    -0.20100
H3230       H  0.41753261  0.85836710  0.74941350     0.17600
H3231       H  0.47881681  0.90297946  0.77308635     0.17600
F3232       F  0.46413012  0.87829120  0.80257044    -0.20100
C3233       C  0.34536095  0.85598020  0.74848356    -0.21600
C3234       C  0.34615699  0.86960324  0.76664611    -0.09600
C3235       C  0.33954328  0.89088694  0.76385041     0.29200
C3236       C  0.33167619  0.89798743  0.74411486    -0.21600
C3237       C  0.33051680  0.88458842  0.72589276    -0.09600
C3238       C  0.33771828  0.86335955  0.72832844     0.29300
F3239       F  0.33673690  0.84959459  0.71162119    -0.20100
H3240       H  0.35061847  0.83952329  0.74987222     0.17600
H3241       H  0.32604879  0.91428756  0.74337412     0.17600
F3242       F  0.34069028  0.90513368  0.78016907    -0.20100
C3243       C  0.35663828  0.77843197  0.84051829    -0.21600
C3244       C  0.34439942  0.79759490  0.83994268    -0.09600
C3245       C  0.32264587  0.79625928  0.84563277     0.29200
C3246       C  0.31351979  0.77629270  0.85114566    -0.21600
C3247       C  0.32585482  0.75716869  0.85140144    -0.09600
C3248       C  0.34772105  0.75871450  0.84631977     0.29300
F3249       F  0.36070006  0.74124091  0.84707438    -0.20100
H3250       H  0.37348065  0.77852486  0.83635980     0.17600
H3251       H  0.29669736  0.77587144  0.85544298     0.17600
F3252       F  0.31011998  0.81403987  0.84556050    -0.20100
C3253       C  0.30878438  0.93335158  0.43432172    -0.21600
C3254       C  0.29920996  0.95289640  0.44079567    -0.09600
C3255       C  0.29241740  0.96697209  0.42448731     0.29200
C3256       C  0.29519309  0.96178040  0.40280715    -0.21600
C3257       C  0.30474368  0.94230613  0.39615523    -0.09600
C3258       C  0.31153517  0.92809872  0.41240434     0.29300
F3259       F  0.32050355  0.90901515  0.40721895    -0.20100
H3260       H  0.31372266  0.92177220  0.44629894     0.17600
H3261       H  0.28951320  0.97328200  0.39107836     0.17600
F3262       F  0.28243427  0.98566486  0.42934905    -0.20100
C3263       C  0.29313992  0.96067025  0.56650268    -0.21600
C3264       C  0.30066457  0.94643929  0.55095380    -0.09600
C3265       C  0.31175745  0.92791520  0.55805778     0.29200
C3266       C  0.31481437  0.92367456  0.58008919    -0.21600
C3267       C  0.30652038  0.93752359  0.59575285    -0.09600
C3268       C  0.29577747  0.95631368  0.58844915     0.29300
F3269       F  0.28698548  0.97036229  0.60246457    -0.20100
H3270       H  0.28388488  0.97458516  0.56169993     0.17600
H3271       H  0.32327002  0.90927338  0.58486779     0.17600
F3272       F  0.31916608  0.91352645  0.54361079    -0.20100
C3273       C  0.23149934  0.87361086  0.52737352    -0.21600
C3274       C  0.23313588  0.89489015  0.53453325    -0.09600
C3275       C  0.22551894  0.90046181  0.55480087     0.29200
C3276       C  0.21333436  0.88588404  0.56617516    -0.21600
C3277       C  0.20833277  0.86601679  0.55710301    -0.09600
C3278       C  0.21873283  0.85913953  0.53859439     0.29300
F3279       F  0.21415397  0.83980714  0.52985509    -0.20100
H3280       H  0.23795986  0.86891565  0.51224347     0.17600
H3281       H  0.20554807  0.89108863  0.58073441     0.17600
F3282       F  0.22797489  0.92058272  0.56258272    -0.20100
C3283       C  0.23204152  0.87993216  0.45979706    -0.21600
C3284       C  0.23856701  0.89848890  0.44904853    -0.09600
C3285       C  0.23598084  0.90073485  0.42701864     0.29200
C3286       C  0.22398189  0.88552594  0.41621634    -0.21600
C3287       C  0.21444613  0.86878684  0.42783279    -0.09600
C3288       C  0.21970500  0.86505638  0.44916879     0.29300
F3289       F  0.21104653  0.84843431  0.46019801    -0.20100
H3290       H  0.23441162  0.87823753  0.47658775     0.17600
H3291       H  0.21995167  0.88826351  0.39959234     0.17600
F3292       F  0.24241602  0.91877432  0.41672616    -0.20100
C3293       C  0.30326368  0.59588694  0.92274556    -0.21600
C3294       C  0.29694520  0.58300973  0.90545353    -0.09600
C3295       C  0.29612638  0.59278414  0.88490113     0.29200
C3296       C  0.30087420  0.61457678  0.88201806    -0.21600
C3297       C  0.30678850  0.62756126  0.89930127    -0.09600
C3298       C  0.30814259  0.61777876  0.91979511     0.29300
F3299       F  0.31354766  0.62946398  0.93725158    -0.20100
H3300       H  0.30388653  0.58916656  0.93872782     0.17600
H3301       H  0.29962038  0.62137162  0.86609687     0.17600
F3302       F  0.29029607  0.58144999  0.86733576    -0.20100
C3303       C  0.19495330  0.55127526  0.82983151    -0.21600
C3304       C  0.20195311  0.57109659  0.82198972    -0.09600
C3305       C  0.22246404  0.57868647  0.82728476     0.29200
C3306       C  0.23455275  0.56787272  0.84273466    -0.21600
C3307       C  0.22602236  0.54966168  0.85262906    -0.09600
C3308       C  0.20685174  0.54066167  0.84532223     0.29300
F3309       F  0.19889435  0.52255819  0.85437182    -0.20100
H3310       H  0.17912072  0.54531799  0.82579609     0.17600
H3311       H  0.24965059  0.57455147  0.84813278     0.17600
F3312       F  0.22945056  0.59783105  0.81975511    -0.20100
C3313       C  0.41568246  0.20468199  0.92008199    -0.21600
C3314       C  0.39784478  0.20422246  0.93392513    -0.09600
C3315       C  0.37749571  0.19991261  0.92465721     0.29200
C3316       C  0.37504268  0.19708873  0.90256421    -0.21600
C3317       C  0.39261099  0.19816185  0.88862222    -0.09600
C3318       C  0.41316199  0.20163917  0.89773091     0.29300
F3319       F  0.43065807  0.20336724  0.88496264    -0.20100
H3320       H  0.43142617  0.20851583  0.92637271     0.17600
H3321       H  0.35905393  0.19435416  0.89628584     0.17600
F3322       F  0.35948540  0.19926259  0.93683533    -0.20100
C3323       C  0.14874380  0.46323611  0.90136450    -0.21600
C3324       C  0.14401280  0.44229983  0.89420409    -0.09600
C3325       C  0.14265681  0.42614825  0.90991390     0.29200
C3326       C  0.14601186  0.43087109  0.93187252    -0.21600
C3327       C  0.15128914  0.45175942  0.93900318    -0.09600
C3328       C  0.15261343  0.46787089  0.92318227     0.29300
F3329       F  0.15806076  0.48815011  0.92865234    -0.20100
H3330       H  0.15009155  0.47612669  0.88983270     0.17600
H3331       H  0.14511934  0.41786487  0.94330939     0.17600
F3332       F  0.13784538  0.40580227  0.90412766    -0.20100
C3333       C  0.22717318  0.47083952  0.83409111    -0.21600
C3334       C  0.20849172  0.46235150  0.84310057    -0.09600
C3335       C  0.20947149  0.45219589  0.86319932     0.29200
C3336       C  0.22777432  0.45422635  0.87567472    -0.21600
C3337       C  0.24418635  0.46767348  0.86864683    -0.09600
C3338       C  0.24543768  0.47299358  0.84684380     0.29300
F3339       F  0.26212315  0.48481003  0.83944076    -0.20100
H3340       H  0.22697801  0.47766616  0.81814485     0.17600
H3341       H  0.22709219  0.44927655  0.89229530     0.17600
F3342       F  0.19213027  0.44209464  0.87157692    -0.20100
C3343       C  0.24535116  0.36773861  0.95599238    -0.21600
C3344       C  0.24578489  0.36966583  0.93378278    -0.09600
C3345       C  0.23019141  0.38205218  0.92300265     0.29200
C3346       C  0.21623943  0.39478074  0.93473254    -0.21600
C3347       C  0.21809386  0.39505509  0.95694863    -0.09600
C3348       C  0.23150460  0.38039106  0.96760812     0.29300
F3349       F  0.23300491  0.38013752  0.98925237    -0.20100
H3350       H  0.25691505  0.35779797  0.96441132     0.17600
H3351       H  0.20584335  0.40606714  0.92649927     0.17600
F3352       F  0.23020018  0.38395779  0.90137529    -0.20100
C3353       C  0.33828129  0.29497959  0.91677508    -0.21600
C3354       C  0.31828448  0.29902483  0.92619131    -0.09600
C3355       C  0.31019416  0.28522774  0.94180253     0.29200
C3356       C  0.32394915  0.27016966  0.95094816    -0.21600
C3357       C  0.34562148  0.26961995  0.94469984    -0.09600
C3358       C  0.35202278  0.28013374  0.92597625     0.29300
F3359       F  0.37239916  0.27832091  0.91849291    -0.20100
H3360       H  0.34420574  0.30509253  0.90395801     0.17600
H3361       H  0.31849398  0.26127337  0.96479294     0.17600
F3362       F  0.29045339  0.28847202  0.95035516    -0.20100
C3363       C  0.30686135  0.43766267  0.92762831    -0.21600
C3364       C  0.30989803  0.43082292  0.90631171    -0.09600
C3365       C  0.31203590  0.44668770  0.89042931     0.29200
C3366       C  0.31006172  0.46856799  0.89570232    -0.21600
C3367       C  0.30552276  0.47522658  0.91683882    -0.09600
C3368       C  0.30466016  0.45939985  0.93283355     0.29300
F3369       F  0.30099121  0.46482818  0.95351089    -0.20100
H3370       H  0.30564717  0.42604371  0.94044838     0.17600
H3371       H  0.31074554  0.48025064  0.88290347     0.17600
F3372       F  0.31483043  0.44110791  0.86966372    -0.20100
C3373       C  0.33828136  0.30250436  0.83514015    -0.21600
C3374       C  0.32168759  0.30161930  0.85011352    -0.09600
C3375       C  0.31426288  0.28106157  0.85666026     0.29200
C3376       C  0.32361616  0.26222070  0.84889484    -0.21600
C3377       C  0.34062910  0.26308337  0.83444579    -0.09600
C3378       C  0.34768137  0.28359606  0.82738850     0.29300
F3379       F  0.36386993  0.28558902  0.81302481    -0.20100
H3380       H  0.34442826  0.31782386  0.82986872     0.17600
H3381       H  0.31777008  0.24692365  0.85456480     0.17600
F3382       F  0.29802505  0.27892820  0.87095600    -0.20100
C3383       C  0.20974198  0.37499052  0.84668042    -0.21600
C3384       C  0.20935119  0.39393131  0.83452849    -0.09600
C3385       C  0.22951418  0.40365147  0.82977050     0.29200
C3386       C  0.24892241  0.39482296  0.83693557    -0.21600
C3387       C  0.24935534  0.37584275  0.84876115    -0.09600
C3388       C  0.22943355  0.36599011  0.85364957     0.29300
F3389       F  0.22886785  0.34805594  0.86591694    -0.20100
H3390       H  0.19482768  0.36720574  0.85093804     0.17600
H3391       H  0.26378254  0.40294873  0.83309601     0.17600
F3392       F  0.23083874  0.42199894  0.81816376    -0.20100
C3393       C  0.13612612  0.39369385  0.72214862    -0.21600
C3394       C  0.12252878  0.37580675  0.72129228    -0.09600
C3395       C  0.11549960  0.36713579  0.74107887     0.29200
C3396       C  0.12182053  0.37615320  0.76087070    -0.21600
C3397       C  0.13588693  0.39370508  0.76173319    -0.09600
C3398       C  0.14298029  0.40228686  0.74190170     0.29300
F3399       F  0.15629512  0.41944653  0.74147909    -0.20100
H3400       H  0.14167396  0.40098460  0.70743414     0.17600
H3401       H  0.11589576  0.36916615  0.77557994     0.17600
F3402       F  0.10189357  0.35021193  0.74137933    -0.20100
C3403       C  0.12399847  0.26093457  0.64987863    -0.21600
C3404       C  0.13938605  0.26049670  0.63373656    -0.09600
C3405       C  0.14716774  0.28042116  0.62593782     0.29200
C3406       C  0.13896153  0.30012427  0.63366523    -0.21600
C3407       C  0.12311591  0.30047551  0.64962438    -0.09600
C3408       C  0.11625785  0.28031605  0.65794827     0.29300
F3409       F  0.10168401  0.27898824  0.67401588    -0.20100
H3410       H  0.11787904  0.24608567  0.65643896     0.17600
H3411       H  0.14463764  0.31500375  0.62681396     0.17600
F3412       F  0.16216429  0.28091645  0.61024462    -0.20100
C3413       C  0.32254956  0.16051081  0.74229854    -0.21600
C3414       C  0.32520403  0.17205342  0.72295018    -0.09600
C3415       C  0.33297419  0.19314521  0.72436664     0.29200
C3416       C  0.33778519  0.20214995  0.74460507    -0.21600
C3417       C  0.33489887  0.19033901  0.76377764    -0.09600
C3418       C  0.32710074  0.16939715  0.76218148     0.29300
F3419       F  0.32395248  0.15719737  0.77990309    -0.20100
H3420       H  0.31668890  0.14420841  0.74230033     0.17600
H3421       H  0.34423753  0.21821270  0.74523814     0.17600
F3422       F  0.33593305  0.20499844  0.70641123    -0.20100
C3423       C  0.21289456  0.17664721  0.65398945    -0.21600
C3424       C  0.21175533  0.18952157  0.63555791    -0.09600
C3425       C  0.23156326  0.19618075  0.62624573     0.29200
C3426       C  0.25133343  0.18939278  0.63437783    -0.21600
C3427       C  0.25251403  0.17629392  0.65240267    -0.09600
C3428       C  0.23302097  0.17020885  0.66244020     0.29300
F3429       F  0.23332492  0.15720587  0.67985593    -0.20100
H3430       H  0.19828094  0.17115903  0.66156411     0.17600
H3431       H  0.26590247  0.19440576  0.62636838     0.17600
F3432       F  0.23218390  0.20921928  0.60884048    -0.20100
C3433       C  0.04019640  0.35693433  0.42410808    -0.21600
C3434       C  0.05502474  0.35922136  0.44093191    -0.09600
C3435       C  0.07624955  0.36540796  0.43551688     0.29200
C3436       C  0.08246453  0.36817694  0.41396011    -0.21600
C3437       C  0.06762491  0.36554682  0.39722052    -0.09600
C3438       C  0.04625765  0.36024621  0.40269163     0.29300
F3439       F  0.03127832  0.35728119  0.38717616    -0.20100
H3440       H  0.02389199  0.35196400  0.42745840     0.17600
H3441       H  0.09890391  0.37248847  0.41036927     0.17600
F3442       F  0.09134281  0.36802900  0.45097471    -0.20100
C3443       C  0.04175481  0.35438894  0.56413187    -0.21600
C3444       C  0.05867419  0.35479615  0.54925816    -0.09600
C3445       C  0.07932315  0.36037411  0.55701026     0.29200
C3446       C  0.08314194  0.36397797  0.57890041    -0.21600
C3447       C  0.06652502  0.36268379  0.59395009    -0.09600
C3448       C  0.04554415  0.35837974  0.58613575     0.29300
F3449       F  0.02881935  0.35677407  0.59991581    -0.20100
H3450       H  0.02579432  0.34983288  0.55895415     0.17600
H3451       H  0.09933267  0.36759032  0.58412766     0.17600
F3452       F  0.09619590  0.36177063  0.54338005    -0.20100
C3453       C  0.12903534  0.24408213  0.52312364    -0.21600
C3454       C  0.13741405  0.25055317  0.54289260    -0.09600
C3455       C  0.13208711  0.27085058  0.55123049     0.29200
C3456       C  0.11745571  0.28374444  0.54050490    -0.21600
C3457       C  0.10804092  0.27635667  0.52173776    -0.09600
C3458       C  0.11424031  0.25690764  0.51262171     0.29300
F3459       F  0.10546711  0.25011289  0.49392788    -0.20100
H3460       H  0.13299284  0.22863136  0.51636248     0.17600
H3461       H  0.11271649  0.29896992  0.54730611     0.17600
F3462       F  0.13986863  0.27772333  0.57030047    -0.20100
C3463       C  0.13940226  0.27561742  0.44558871    -0.21600
C3464       C  0.13299963  0.26345959  0.42805569    -0.09600
C3465       C  0.11434580  0.26876331  0.41653097     0.29200
C3466       C  0.10087365  0.28474608  0.42402320    -0.21600
C3467       C  0.10614039  0.29546888  0.44284436    -0.09600
C3468       C  0.12612851  0.29198057  0.45278362     0.29300
F3469       F  0.13128911  0.30224877  0.47119905    -0.20100
H3470       H  0.15407149  0.27182387  0.45417336     0.17600
H3471       H  0.08524156  0.28695231  0.41665815     0.17600
F3472       F  0.10809268  0.25698840  0.39939212    -0.20100
C3473       C  0.30281484  0.09666700  0.40261591    -0.21600
C3474       C  0.30566271  0.11745551  0.39387166    -0.09600
C3475       C  0.30559710  0.13471741  0.40825333     0.29200
C3476       C  0.30179761  0.13137395  0.43024312    -0.21600
C3477       C  0.29809017  0.11072639  0.43891427    -0.09600
C3478       C  0.29923931  0.09329131  0.42473448     0.29300
F3479       F  0.29579230  0.07308859  0.43195489    -0.20100
H3480       H  0.30292007  0.08286531  0.39217793     0.17600
H3481       H  0.30104531  0.14529851  0.44049238     0.17600
F3482       F  0.30809071  0.15503840  0.40099241    -0.20100
C3483       C  0.31065733  0.12566623  0.55378940    -0.21600
C3484       C  0.30329811  0.10495459  0.54816568    -0.09600
C3485       C  0.29904960  0.09056513  0.56495299     0.29200
C3486       C  0.30133154  0.09682098  0.58634949    -0.21600
C3487       C  0.30792552  0.11767422  0.59218255    -0.09600
C3488       C  0.31296726  0.13198027  0.57546469     0.29300
F3489       F  0.31935018  0.15222515  0.57994840    -0.20100
H3490       H  0.31377242  0.13735841  0.54137542     0.17600
H3491       H  0.29754644  0.08505901  0.59851231     0.17600
F3492       F  0.29195167  0.07046475  0.56082932    -0.20100
C3493       C  0.22773505  0.14340999  0.56638407    -0.21600
C3494       C  0.24282607  0.15157102  0.55210876    -0.09600
C3495       C  0.24403137  0.17367720  0.54839304     0.29200
C3496       C  0.22676266  0.18653617  0.55417244    -0.21600
C3497       C  0.20899130  0.17708214  0.56398795    -0.09600
C3498       C  0.21051089  0.15613628  0.57218308     0.29300
F3499       F  0.19430329  0.14725944  0.58364346    -0.20100
H3500       H  0.22713079  0.12640038  0.56976745     0.17600
H3501       H  0.22618426  0.20299735  0.54873383     0.17600
F3502       F  0.25928036  0.18180375  0.53520516    -0.20100
C3503       C  0.22779191  0.18426745  0.46914342    -0.21600
C3504       C  0.23164070  0.16351826  0.46141856    -0.09600
C3505       C  0.22592062  0.15817191  0.44046335     0.29200
C3506       C  0.21366065  0.17232526  0.42852562    -0.21600
C3507       C  0.20724563  0.19191747  0.43728013    -0.09600
C3508       C  0.21544695  0.19855455  0.45703830     0.29300
F3509       F  0.20912114  0.21740473  0.46575507    -0.20100
H3510       H  0.23238608  0.18857726  0.48530318     0.17600
H3511       H  0.20690610  0.16683746  0.41349052     0.17600
F3512       F  0.23039539  0.13851485  0.43237355    -0.20100
C3513       C  0.16057421  0.09347258  0.60170207    -0.21600
C3514       C  0.15419780  0.08294993  0.58261082    -0.09600
C3515       C  0.14304049  0.09528581  0.56732417     0.29200
C3516       C  0.13855252  0.11722689  0.57115735    -0.21600
C3517       C  0.14525809  0.12765351  0.59019573    -0.09600
C3518       C  0.15637914  0.11525150  0.60539257     0.29300
F3519       F  0.16390651  0.12423246  0.62367301    -0.20100
H3520       H  0.16959261  0.08496488  0.61387582     0.17600
H3521       H  0.13016980  0.12621672  0.55888851     0.17600
F3522       F  0.13667915  0.08633109  0.54862348    -0.20100
C3523       C  0.14462941  0.94155333  0.60236136    -0.21600
C3524       C  0.14641023  0.92588824  0.58633201    -0.09600
C3525       C  0.15113791  0.93314678  0.56535446     0.29200
C3526       C  0.15414694  0.95511926  0.56075760    -0.21600
C3527       C  0.15229233  0.97086158  0.57672557    -0.09600
C3528       C  0.14729937  0.96359769  0.59770250     0.29300
F3529       F  0.14565826  0.97771959  0.61406972    -0.20100
H3530       H  0.14108877  0.93674159  0.61863481     0.17600
H3531       H  0.15842932  0.95976555  0.54461749     0.17600
F3532       F  0.15377332  0.91886809  0.54925044    -0.20100
C3533       C  0.23099879  0.99487403  0.64436196    -0.21600
C3534       C  0.22068362  0.98308334  0.62836149    -0.09600
C3535       C  0.22156136  0.96076768  0.62827129     0.29200
C3536       C  0.23496734  0.95049928  0.64286982    -0.21600
C3537       C  0.24751608  0.96270979  0.65703325    -0.09600
C3538       C  0.24453061  0.98477811  0.65865003     0.29300
F3539       F  0.25613552  0.99670323  0.67263513    -0.20100
H3540       H  0.23025609  0.01221743  0.64440575     0.17600
H3541       H  0.23725282  0.93332436  0.64158501     0.17600
F3542       F  0.21174023  0.94932292  0.61263828    -0.20100
C3543       C  0.23021929  0.08857516  0.61690280    -0.21600
C3544       C  0.22201121  0.06932185  0.62494209    -0.09600
C3545       C  0.22321331  0.06477018  0.64697047     0.29200
C3546       C  0.23585287  0.07750287  0.65998875    -0.21600
C3547       C  0.24616937  0.09521232  0.65122356    -0.09600
C3548       C  0.24214550  0.10172170  0.63016118     0.29300
F3549       F  0.25187633  0.11928966  0.62181577    -0.20100
H3550       H  0.22878846  0.09259177  0.60008765     0.17600
H3551       H  0.23883239  0.07274127  0.67640944     0.17600
F3552       F  0.21418657  0.04694728  0.65548450    -0.20100
C3553       C  0.05017201  0.21232976  0.55699572    -0.21600
C3554       C  0.03406165  0.20578123  0.57119161    -0.09600
C3555       C  0.04077753  0.19683608  0.59103191     0.29200
C3556       C  0.06289915  0.19456137  0.59617636    -0.21600
C3557       C  0.07898382  0.20136007  0.58187784    -0.09600
C3558       C  0.07201651  0.21038089  0.56213479     0.29300
F3559       F  0.08629049  0.21784111  0.54754129    -0.20100
H3560       H  0.04588419  0.21974502  0.54188282     0.17600
H3561       H  0.06740922  0.18757139  0.61141777     0.17600
F3562       F  0.02602284  0.19074789  0.60575889    -0.20100
C3563       C  0.04927409  0.28019277  0.61649742    -0.21600
C3564       C  0.03140360  0.26800300  0.62202093    -0.09600
C3565       C  0.02379394  0.26803750  0.64317610     0.29200
C3566       C  0.03165644  0.28304409  0.65768270    -0.21600
C3567       C  0.04721745  0.29760268  0.65093765    -0.09600
C3568       C  0.05737234  0.29487737  0.63103522     0.29300
F3569       F  0.07315357  0.30840387  0.62461620    -0.20100
H3570       H  0.05517681  0.28027128  0.60020775     0.17600
H3571       H  0.02385651  0.28495477  0.67302615     0.17600
F3572       F  0.00650009  0.25605450  0.64866358    -0.20100
C3573       C  0.54563557  0.20109076  0.89721036    -0.21600
C3574       C  0.56709773  0.19773440  0.89057162    -0.09600
C3575       C  0.58278457  0.19570280  0.90674354     0.29200
C3576       C  0.57707932  0.19767000  0.92863429    -0.21600
C3577       C  0.55563635  0.20186715  0.93507430    -0.09600
C3578       C  0.53999645  0.20317771  0.91887450     0.29300
F3579       F  0.51914693  0.20697672  0.92386674    -0.20100
H3580       H  0.53292989  0.20249079  0.88543453     0.17600
H3581       H  0.58970911  0.19689867  0.94053593     0.17600
F3582       F  0.60372014  0.19293369  0.90146247    -0.20100
C3583       C  0.60540925  0.17878321  0.74116685    -0.21600
C3584       C  0.61911261  0.18305184  0.75861632    -0.09600
C3585       C  0.64139241  0.18295024  0.75473966     0.29200
C3586       C  0.64932596  0.17879205  0.73389225    -0.21600
C3587       C  0.63524805  0.17504646  0.71643808    -0.09600
C3588       C  0.61309937  0.17503570  0.72060224     0.29300
F3589       F  0.59861080  0.17110949  0.70484273    -0.20100
H3590       H  0.58807194  0.17897064  0.74326422     0.17600
H3591       H  0.66654765  0.17862331  0.73137674     0.17600
F3592       F  0.65536927  0.18773016  0.77069386    -0.20100
C3593       C  0.65880254  0.43490941  0.92193155    -0.21600
C3594       C  0.64920330  0.42845442  0.90243882    -0.09600
C3595       C  0.64113943  0.44473324  0.88896470     0.29200
C3596       C  0.64321711  0.46657868  0.89468894    -0.21600
C3597       C  0.65319944  0.47288546  0.91406843    -0.09600
C3598       C  0.66074189  0.45652264  0.92768182     0.29300
F3599       F  0.67075408  0.46129259  0.94637827    -0.20100
H3600       H  0.66517891  0.42310543  0.93297302     0.17600
H3601       H  0.63747165  0.47863822  0.88358942     0.17600
F3602       F  0.63153974  0.43966402  0.87015700    -0.20100
C3603       C  0.64011093  0.28064726  0.93488826    -0.21600
C3604       C  0.63155585  0.29821604  0.92385111    -0.09600
C3605       C  0.61006205  0.29772876  0.91678372     0.29200
C3606       C  0.59644405  0.28173650  0.92386047    -0.21600
C3607       C  0.60414271  0.26623399  0.93800269    -0.09600
C3608       C  0.62631267  0.26449046  0.94196701     0.29300
F3609       F  0.63397753  0.24909904  0.95532944    -0.20100
H3610       H  0.65677922  0.28053714  0.93986971     0.17600
H3611       H  0.57938312  0.28311106  0.92062257     0.17600
F3612       F  0.60176372  0.31376327  0.90457947    -0.20100
C3613       C  0.62680714  0.28002775  0.86172464    -0.21600
C3614       C  0.63032393  0.29787963  0.84824207    -0.09600
C3615       C  0.62874618  0.29459706  0.82602735     0.29200
C3616       C  0.62421970  0.27390529  0.81783484    -0.21600
C3617       C  0.62146974  0.25601244  0.83158179    -0.09600
C3618       C  0.62269811  0.25961015  0.85372388     0.29300
F3619       F  0.61978877  0.24341996  0.86795260    -0.20100
H3620       H  0.62786194  0.28166226  0.87889898     0.17600
H3621       H  0.62296595  0.27186898  0.80069573     0.17600
F3622       F  0.63232040  0.31102598  0.81227691    -0.20100
C3623       C  0.73190623  0.45458731  0.84455138    -0.21600
C3624       C  0.74477027  0.46646938  0.83039403    -0.09600
C3625       C  0.74142490  0.48841023  0.82773984     0.29200
C3626       C  0.72705979  0.49878494  0.84099208    -0.21600
C3627       C  0.71645533  0.48739968  0.85718057    -0.09600
C3628       C  0.71781483  0.46511388  0.85819618     0.29300
F3629       F  0.70788133  0.45402921  0.87402881    -0.20100
H3630       H  0.73439655  0.43752022  0.84660222     0.17600
H3631       H  0.72597032  0.51607989  0.84017094     0.17600
F3632       F  0.75324647  0.49998099  0.81363514    -0.20100
C3633       C  0.85819213  0.46262664  0.74613869    -0.21600
C3634       C  0.84997136  0.47751161  0.73164160    -0.09600
C3635       C  0.82776218  0.48129397  0.73044480     0.29200
C3636       C  0.81437592  0.47314502  0.74633181    -0.21600
C3637       C  0.82338812  0.46117535  0.76300375    -0.09600
C3638       C  0.84489399  0.45429990  0.76177986     0.29300
F3639       F  0.85351796  0.44123673  0.77695303    -0.20100
H3640       H  0.87531081  0.45958238  0.74702857     0.17600
H3641       H  0.79768755  0.47802798  0.74685200     0.17600
F3642       F  0.81968852  0.49547968  0.71602422    -0.20100
C3643       C  0.74583772  0.36637110  0.84791448    -0.21600
C3644       C  0.74797787  0.38223962  0.83209896    -0.09600
C3645       C  0.72881710  0.39080440  0.82318174     0.29200
C3646       C  0.70837978  0.38412292  0.83031213    -0.21600
C3647       C  0.70622315  0.36799806  0.84585435    -0.09600
C3648       C  0.72538592  0.35900631  0.85435797     0.29300
F3649       F  0.72446378  0.34340589  0.86945263    -0.20100
H3650       H  0.76005249  0.35944023  0.85515939     0.17600
H3651       H  0.69416993  0.39144798  0.82345156     0.17600
F3652       F  0.72973561  0.40621788  0.80788912    -0.20100
C3653       C  0.88869498  0.19840145  0.56077911    -0.21600
C3654       C  0.87928197  0.19723306  0.58132619    -0.09600
C3655       C  0.89281751  0.20028019  0.59911920     0.29200
C3656       C  0.91467619  0.20510891  0.59639453    -0.21600
C3657       C  0.92397246  0.20727281  0.57588402    -0.09600
C3658       C  0.91066375  0.20343199  0.55804197     0.29300
F3659       F  0.91851463  0.20561110  0.53793566    -0.20100
H3660       H  0.87882135  0.19625106  0.54667884     0.17600
H3661       H  0.92425452  0.20782023  0.61060074     0.17600
F3662       F  0.88492673  0.19893612  0.61929393    -0.20100
C3663       C  0.72989239  0.19993902  0.62704310    -0.21600
C3664       C  0.74888954  0.18749695  0.62908349    -0.09600
C3665       C  0.74696398  0.16674001  0.63736183     0.29200
C3666       C  0.72699334  0.15883245  0.64361237    -0.21600
C3667       C  0.70787962  0.17109255  0.64190646    -0.09600
C3668       C  0.70960077  0.19186210  0.63332755     0.29300
F3669       F  0.69191697  0.20441244  0.63124574    -0.20100
H3670       H  0.73069118  0.21591133  0.62034333     0.17600
H3671       H  0.72672631  0.14275296  0.65008156     0.17600
F3672       F  0.76442721  0.15387743  0.63956061    -0.20100
C3673       C  0.91451142  0.45999871  0.67420409    -0.21600
C3674       C  0.89911641  0.47540406  0.66836446    -0.09600
C3675       C  0.87921154  0.46780121  0.66032197     0.29200
C3676       C  0.87508742  0.44558304  0.65831056    -0.21600
C3677       C  0.89048073  0.43019834  0.66448745    -0.09600
C3678       C  0.91038820  0.43796193  0.67242644     0.29300
F3679       F  0.92613157  0.42429235  0.67881641    -0.20100
H3680       H  0.92979092  0.46499625  0.68082334     0.17600
H3681       H  0.85962996  0.44043144  0.65226209     0.17600
F3682       F  0.86332920  0.48177292  0.65509197    -0.20100
C3683       C  0.91075970  0.29506678  0.63445406    -0.21600
C3684       C  0.91927430  0.29983191  0.65464450    -0.09600
C3685       C  0.93822245  0.29010086  0.66170040     0.29200
C3686       C  0.95027215  0.27823789  0.64722262    -0.21600
C3687       C  0.94337824  0.27657695  0.62587069    -0.09600
C3688       C  0.92295570  0.28379402  0.61987582     0.29300
F3689       F  0.91569366  0.28167328  0.59948774    -0.20100
H3690       H  0.89594551  0.30251117  0.62904748     0.17600
H3691       H  0.96593106  0.27234822  0.65206382     0.17600
F3692       F  0.94643147  0.29453448  0.68132204    -0.20100
C3693       C  0.83490169  0.35682846  0.73809458    -0.21600
C3694       C  0.83498599  0.37051323  0.71990480    -0.09600
C3695       C  0.83052760  0.39225916  0.72319173     0.29200
C3696       C  0.82567466  0.39988510  0.74358153    -0.21600
C3697       C  0.82464695  0.38631171  0.76176096    -0.09600
C3698       C  0.82978419  0.36459306  0.75879759     0.29300
F3699       F  0.82939645  0.35084234  0.77561407    -0.20100
H3700       H  0.83888372  0.34006078  0.73631771     0.17600
H3701       H  0.82216076  0.41679455  0.74491896     0.17600
F3702       F  0.83075883  0.40641359  0.70667651    -0.20100
C3703       C  0.85052872  0.27925225  0.64656781    -0.21600
C3704       C  0.83914239  0.29892272  0.64486844    -0.09600
C3705       C  0.81873457  0.29852146  0.63532745     0.29200
C3706       C  0.81020790  0.27909690  0.62770869    -0.21600
C3707       C  0.82165244  0.25954114  0.62955777    -0.09600
C3708       C  0.84196767  0.25991702  0.63909138     0.29300
F3709       F  0.85410033  0.24186757  0.64009146    -0.20100
H3710       H  0.86644099  0.27872960  0.65355535     0.17600
H3711       H  0.79461201  0.27937849  0.62002021     0.17600
F3712       F  0.80702775  0.31675361  0.63332239    -0.20100
C3713       C  0.41380008  0.35712354  0.88732427    -0.21600
C3714       C  0.42273812  0.35493303  0.90806386    -0.09600
C3715       C  0.40889695  0.35805932  0.92557984     0.29200
C3716       C  0.38678308  0.36231867  0.92222967    -0.21600
C3717       C  0.37781881  0.36328794  0.90138994    -0.09600
C3718       C  0.39186398  0.36098803  0.88400124     0.29300
F3719       F  0.38441464  0.36205300  0.86360340    -0.20100
H3720       H  0.42372870  0.35498491  0.87329747     0.17600
H3721       H  0.37648759  0.36402879  0.93604799     0.17600
F3722       F  0.41639404  0.35596849  0.94587173    -0.20100
C3723       C  0.53937973  0.36234353  0.89236377    -0.21600
C3724       C  0.53334277  0.35536505  0.91308618    -0.09600
C3725       C  0.55001970  0.35238868  0.92813361     0.29200
C3726       C  0.57170172  0.35602686  0.92257258    -0.21600
C3727       C  0.57778721  0.36225737  0.90170403    -0.09600
C3728       C  0.56117032  0.36554518  0.88667816     0.29300
F3729       F  0.56591474  0.37203438  0.86651022    -0.20100
H3730       H  0.52720186  0.36464935  0.88017949     0.17600
H3731       H  0.58395337  0.35324586  0.93459592     0.17600
F3732       F  0.54550134  0.34546727  0.94820665    -0.20100
C3733       C  0.54527253  0.27882854  0.86929851    -0.21600
C3734       C  0.52852563  0.29185190  0.86210533    -0.09600
C3735       C  0.52218201  0.29167867  0.84055217     0.29200
C3736       C  0.53069508  0.27640386  0.82688210    -0.21600
C3737       C  0.54579023  0.26189412  0.83478896    -0.09600
C3738       C  0.55410009  0.26389768  0.85554435     0.29300
F3739       F  0.56923758  0.25011576  0.86305221    -0.20100
H3740       H  0.54985118  0.27865326  0.88604509     0.17600
H3741       H  0.52468595  0.27508066  0.81065850     0.17600
F3742       F  0.50581656  0.30430056  0.83359106    -0.20100
C3743       C  0.41040205  0.26592161  0.84434907    -0.21600
C3744       C  0.42097694  0.26020798  0.82543036    -0.09600
C3745       C  0.44001752  0.27038403  0.81955755     0.29200
C3746       C  0.44996107  0.28397367  0.83415726    -0.21600
C3747       C  0.44101280  0.28684801  0.85458195    -0.09600
C3748       C  0.42044566  0.27909989  0.85903795     0.29300
F3749       F  0.41110439  0.28245902  0.87834686    -0.20100
H3750       H  0.39555140  0.25812058  0.84890637     0.17600
H3751       H  0.46576311  0.29015215  0.83045162     0.17600
F3752       F  0.45031784  0.26496508  0.80124557    -0.20100
C3753       C  0.91392762  0.35530094  0.42073315    -0.21600
C3754       C  0.89828491  0.35505270  0.43695240    -0.09600
C3755       C  0.87665526  0.35861763  0.43055929     0.29200
C3756       C  0.87104740  0.36207939  0.40891636    -0.21600
C3757       C  0.88668349  0.36259526  0.39276773    -0.09600
C3758       C  0.90833224  0.35922631  0.39909396     0.29300
F3759       F  0.92415669  0.35889338  0.38421728    -0.20100
H3760       H  0.93057720  0.35220849  0.42475340     0.17600
H3761       H  0.85429537  0.36439277  0.40479408     0.17600
F3762       F  0.86055834  0.35796771  0.44513193    -0.20100
C3763       C  0.91613896  0.35536409  0.56354608    -0.21600
C3764       C  0.89955276  0.35838162  0.54844785    -0.09600
C3765       C  0.87945315  0.36558921  0.55636763     0.29200
C3766       C  0.87573958  0.36816383  0.57842930    -0.21600
C3767       C  0.89195027  0.36426435  0.59358276    -0.09600
C3768       C  0.91249003  0.35840387  0.58574517     0.29300
F3769       F  0.92874463  0.35421279  0.59964212    -0.20100
H3770       H  0.93159501  0.34938211  0.55833854     0.17600
H3771       H  0.85990604  0.37300442  0.58370342     0.17600
F3772       F  0.86284776  0.36935019  0.54274781    -0.20100
C3773       C  0.85621993  0.27818205  0.55633751    -0.21600
C3774       C  0.84953005  0.29052880  0.53890443    -0.09600
C3775       C  0.82764230  0.29092855  0.53292559     0.29200
C3776       C  0.81409419  0.27514001  0.54063299    -0.21600
C3777       C  0.82243428  0.25982264  0.55455601    -0.09600
C3778       C  0.84257189  0.26270306  0.56425375     0.29300
F3779       F  0.85001533  0.24874147  0.57924500    -0.20100
H3780       H  0.87275966  0.27845900  0.56178829     0.17600
H3781       H  0.79820322  0.27332991  0.53376167     0.17600
F3782       F  0.82025876  0.30396522  0.51710843    -0.20100
C3783       C  0.82932607  0.27484570  0.46748083    -0.21600
C3784       C  0.84364245  0.28718307  0.45527998    -0.09600
C3785       C  0.84200855  0.28747398  0.43298997     0.29200
C3786       C  0.82765957  0.27355862  0.42298496    -0.21600
C3787       C  0.81525552  0.25927482  0.43529712    -0.09600
C3788       C  0.81531113  0.26081030  0.45759251     0.29300
F3789       F  0.80291934  0.24778077  0.46981525    -0.20100
H3790       H  0.83028842  0.27476163  0.48478449     0.17600
H3791       H  0.82765275  0.27261331  0.40569031     0.17600
F3792       F  0.85577618  0.29927294  0.42100983    -0.20100
C3793       C  0.80421928  0.11366232  0.38702109    -0.21600
C3794       C  0.80659811  0.12786852  0.40419234    -0.09600
C3795       C  0.80579632  0.11893959  0.42512823     0.29200
C3796       C  0.80190303  0.09676514  0.42851138    -0.21600
C3797       C  0.79889957  0.08266999  0.41120546    -0.09600
C3798       C  0.80068944  0.09163212  0.39032611     0.29300
F3799       F  0.79851344  0.07916065  0.37271167    -0.20100
H3800       H  0.80490900  0.11966026  0.37075762     0.17600
H3801       H  0.80037338  0.09082103  0.44472859     0.17600
F3802       F  0.80780000  0.13177751  0.44248446    -0.20100
C3803       C  0.80657344  0.96658743  0.39408948    -0.21600
C3804       C  0.80283926  0.97219645  0.41569969    -0.09600
C3805       C  0.80372167  0.95548403  0.43091378     0.29200
C3806       C  0.80824268  0.93417292  0.42466156    -0.21600
C3807       C  0.81140840  0.92853005  0.40298735    -0.09600
C3808       C  0.81044938  0.94520158  0.38777341     0.29300
F3809       F  0.81322952  0.94089865  0.36669992    -0.20100
H3810       H  0.80570478  0.97876780  0.38174902     0.17600
H3811       H  0.80857071  0.92183799  0.43687498     0.17600
F3812       F  0.79991791  0.95960704  0.45185833    -0.20100
C3813       C  0.73588738  0.98492757  0.34636902    -0.21600
C3814       C  0.73546008  0.97697713  0.36736752    -0.09600
C3815       C  0.72169594  0.96026862  0.37292894     0.29200
C3816       C  0.70714880  0.95277165  0.35795638    -0.21600
C3817       C  0.70592521  0.96246535  0.33777991    -0.09600
C3818       C  0.72075248  0.97797314  0.33157832     0.29300
F3819       F  0.71979829  0.98705460  0.31184539    -0.20100
H3820       H  0.74635949  0.99815583  0.34218367     0.17600
H3821       H  0.69584492  0.94040725  0.36254069     0.17600
F3822       F  0.72075178  0.95297424  0.39337709    -0.20100
C3823       C  0.70953867  0.06732974  0.33077749    -0.21600
C3824       C  0.70407239  0.08817025  0.33653271    -0.09600
C3825       C  0.71189815  0.09730456  0.35546312     0.29200
C3826       C  0.72351161  0.08467991  0.36965708    -0.21600
C3827       C  0.72766288  0.06329553  0.36454868    -0.09600
C3828       C  0.72159618  0.05491790  0.34465483     0.29300
F3829       F  0.72532460  0.03414055  0.33962875    -0.20100
H3830       H  0.70331034  0.06029743  0.31620344     0.17600
H3831       H  0.72833068  0.09118789  0.38498281     0.17600
F3832       F  0.70635711  0.11753127  0.36119457    -0.20100
C3833       C  0.04911440  0.85148788  0.55698851    -0.21600
C3834       C  0.03288284  0.85382871  0.57227538    -0.09600
C3835       C  0.03938492  0.85891545  0.59349361     0.29200
C3836       C  0.06142815  0.86075316  0.59909782    -0.21600
C3837       C  0.07767934  0.85756243  0.58381234    -0.09600
C3838       C  0.07091547  0.85341456  0.56245363     0.29300
F3839       F  0.08540553  0.85093894  0.54646316    -0.20100
H3840       H  0.04497191  0.84755556  0.54062106     0.17600
H3841       H  0.06575434  0.86408316  0.61554589     0.17600
F3842       F  0.02452088  0.86120551  0.60915437    -0.20100
C3843       C  0.91379977  0.85889851  0.59264852    -0.21600
C3844       C  0.92244865  0.85401027  0.57231401    -0.09600
C3845       C  0.90823980  0.85364420  0.55481239     0.29200
C3846       C  0.88602495  0.85682552  0.55787984    -0.21600
C3847       C  0.87726275  0.86061344  0.57842281    -0.09600
C3848       C  0.89165528  0.86221050  0.59569932     0.29300
F3849       F  0.88429639  0.86576892  0.61578884    -0.20100
H3850       H  0.92417377  0.85920382  0.60657776     0.17600
H3851       H  0.87553645  0.85569638  0.54408780     0.17600
F3852       F  0.91551589  0.84870814  0.53498715    -0.20100
C3853       C  0.91703896  0.77307056  0.60917869    -0.21600
C3854       C  0.93483393  0.78374327  0.61775271    -0.09600
C3855       C  0.93741106  0.78539832  0.64007072     0.29200
C3856       C  0.92444942  0.77327128  0.65337043    -0.21600
C3857       C  0.90854142  0.76049517  0.64438125    -0.09600
C3858       C  0.90372822  0.76153896  0.62256214     0.29300
F3859       F  0.88760581  0.74968759  0.61401932    -0.20100
H3860       H  0.91437392  0.77235059  0.59205439     0.17600
H3861       H  0.92770687  0.77271192  0.67040130     0.17600
F3862       F  0.95363478  0.79686833  0.64891179    -0.20100
C3863       C  0.01271840  0.77906881  0.64032992    -0.21600
C3864       C  0.02343473  0.78757599  0.62257218    -0.09600
C3865       C  0.04547315  0.78432264  0.61996136     0.29200
C3866       C  0.05613918  0.77029870  0.63372092    -0.21600
C3867       C  0.04458840  0.75947939  0.64970219    -0.09600
C3868       C  0.02324617  0.76491584  0.65387765     0.29300
F3869       F  0.01220464  0.75520480  0.66987551    -0.20100
H3870       H  0.99564347  0.78172343  0.64242808     0.17600
H3871       H  0.07274495  0.76620009  0.63050088     0.17600
F3872       F  0.05590059  0.79252937  0.60277242    -0.20100
C3873       C  0.06202047  0.43321225  0.82737996    -0.21600
C3874       C  0.07746853  0.44827981  0.82084929    -0.09600
C3875       C  0.06971760  0.46797513  0.81238774     0.29200
C3876       C  0.04760283  0.47214594  0.81033644    -0.21600
C3877       C  0.03215953  0.45701076  0.81649555    -0.09600
C3878       C  0.03976904  0.43741110  0.82522907     0.29300
F3879       F  0.02574758  0.42193987  0.83123367    -0.20100
H3880       H  0.06714610  0.41801202  0.83404868     0.17600
H3881       H  0.04258656  0.48717398  0.80319319     0.17600
F3882       F  0.08346304  0.48337265  0.80562497    -0.20100
C3883       C  0.90718274  0.46282569  0.82417613    -0.21600
C3884       C  0.92122640  0.44641036  0.81761896    -0.09600
C3885       C  0.91262484  0.42527927  0.81709161     0.29200
C3886       C  0.89093110  0.42112220  0.82163299    -0.21600
C3887       C  0.87668665  0.43751481  0.82733942    -0.09600
C3888       C  0.88534557  0.45848205  0.82916056     0.29300
F3889       F  0.87255523  0.47505749  0.83498694    -0.20100
H3890       H  0.91288416  0.47917552  0.82480949     0.17600
H3891       H  0.88516811  0.40483463  0.82022633     0.17600
F3892       F  0.92495036  0.40827583  0.81142174    -0.20100
C3893       C  0.94292340  0.38126053  0.74831746    -0.21600
C3894       C  0.93638913  0.40279685  0.74842297    -0.09600
C3895       C  0.91635895  0.40868796  0.74000464     0.29200
C3896       C  0.90447652  0.39366117  0.72883674    -0.21600
C3897       C  0.91289683  0.37311447  0.72586097    -0.09600
C3898       C  0.93140065  0.36646160  0.73655468     0.29300
F3899       F  0.93917903  0.34630572  0.73407774    -0.20100
H3900       H  0.95794095  0.37628092  0.75554127     0.17600
H3901       H  0.88989895  0.39863375  0.72068811     0.17600
F3902       F  0.90912641  0.42916148  0.74121425    -0.20100
C3903       C  0.00769222  0.38603969  0.73971549    -0.21600
C3904       C  0.02021145  0.40137390  0.75030831    -0.09600
C3905       C  0.04253365  0.39954678  0.75075783     0.29200
C3906       C  0.05227604  0.38395725  0.73818129    -0.21600
C3907       C  0.03961286  0.37050927  0.72521732    -0.09600
C3908       C  0.01730253  0.37064877  0.72714086     0.29300
F3909       F  0.00480419  0.35722683  0.71547372    -0.20100
H3910       H  0.99036501  0.38723474  0.73957752     0.17600
H3911       H  0.06962230  0.38387861  0.73692150     0.17600
F3912       F  0.05476995  0.41416732  0.76116818    -0.20100
C3913       C  0.57592628  0.09239877  0.82004157    -0.21600
C3914       C  0.55426417  0.08593353  0.81822778    -0.09600
C3915       C  0.53834545  0.10188607  0.81981938     0.29200
C3916       C  0.54401055  0.12351259  0.82280713    -0.21600
C3917       C  0.56569920  0.13007750  0.82364685    -0.09600
C3918       C  0.58161484  0.11410159  0.82224092     0.29300
F3919       F  0.60273147  0.11938812  0.82277433    -0.20100
H3920       H  0.58868525  0.08069213  0.81873397     0.17600
H3921       H  0.53128129  0.13529424  0.82376341     0.17600
F3922       F  0.51726507  0.09667945  0.81818892    -0.20100
C3923       C  0.58048288  0.96750493  0.81656006    -0.21600
C3924       C  0.55976577  0.97688883  0.81579363    -0.09600
C3925       C  0.54229045  0.96379593  0.82153431     0.29200
C3926       C  0.54555129  0.94206851  0.82727687    -0.21600
C3927       C  0.56625046  0.93261510  0.82726439    -0.09600
C3928       C  0.58370411  0.94588074  0.82203157     0.29300
F3929       F  0.60400296  0.93793804  0.82179628    -0.20100
H3930       H  0.59447531  0.97682942  0.81228526     0.17600
H3931       H  0.53164595  0.93238100  0.83098599     0.17600
F3932       F  0.52197262  0.97161370  0.82068772    -0.20100
C3933       C  0.61827565  0.96320069  0.72990639    -0.21600
C3934       C  0.63635720  0.97271742  0.72060961    -0.09600
C3935       C  0.64106524  0.99429495  0.72413152     0.29200
C3936       C  0.62687388  0.00669095  0.73582888    -0.21600
C3937       C  0.60781614  0.99761172  0.74339048    -0.09600
C3938       C  0.60376958  0.97574409  0.74105925     0.29300
F3939       F  0.58546987  0.96684374  0.74876981    -0.20100
H3940       H  0.61454532  0.94651389  0.72707272     0.17600
H3941       H  0.62998059  0.02362629  0.73767440     0.17600
F3942       F  0.65871727  0.00349740  0.71536774    -0.20100
C3943       C  0.63905731  0.08288472  0.73627957    -0.21600
C3944       C  0.63198347  0.09944574  0.72303587    -0.09600
C3945       C  0.61224427  0.10961183  0.72668332     0.29200
C3946       C  0.59843332  0.10149355  0.74202089    -0.21600
C3947       C  0.60457571  0.08351671  0.75382518    -0.09600
C3948       C  0.62542998  0.07512484  0.75204140     0.29300
F3949       F  0.63141936  0.05761360  0.76351334    -0.20100
H3950       H  0.65452571  0.07538834  0.73372497     0.17600
H3951       H  0.58219237  0.10765333  0.74298710     0.17600
F3952       F  0.60546833  0.12587197  0.71389035    -0.20100
C3953       C  0.79572534  0.58692238  0.06186640    -0.21600
C3954       C  0.80253529  0.60129468  0.04596745    -0.09600
C3955       C  0.81157182  0.62091725  0.05296163     0.29200
C3956       C  0.81322313  0.62594882  0.07504004    -0.21600
C3957       C  0.80587283  0.61169853  0.09092050    -0.09600
C3958       C  0.79727191  0.59188671  0.08375618     0.29300
F3959       F  0.78978849  0.57713455  0.09785848    -0.20100
H3960       H  0.78839120  0.57187947  0.05735961     0.17600
H3961       H  0.82005128  0.64117878  0.07967539     0.17600
F3962       F  0.81829253  0.63562916  0.03846765    -0.20100
C3963       C  0.80196419  0.63222113  0.92798107    -0.21600
C3964       C  0.80036570  0.61084982  0.93555874    -0.09600
C3965       C  0.80354679  0.59442057  0.92049233     0.29200
C3966       C  0.80737627  0.59938601  0.89866785    -0.21600
C3967       C  0.80785282  0.62081603  0.89110032    -0.09600
C3968       C  0.80540553  0.63714007  0.90629506     0.29300
F3969       F  0.80606625  0.65800590  0.90024164    -0.20100
H3970       H  0.79975785  0.64550096  0.93884775     0.17600
H3971       H  0.80916918  0.58631586  0.88748085     0.17600
F3972       F  0.80192981  0.57361719  0.92652493    -0.20100
C3973       C  0.73030054  0.66415897  0.94079095    -0.21600
C3974       C  0.72596438  0.65893009  0.96198322    -0.09600
C3975       C  0.70970426  0.66922369  0.97339698     0.29200
C3976       C  0.69677241  0.68400020  0.96311427    -0.21600
C3977       C  0.69990454  0.68823631  0.94135545    -0.09600
C3978       C  0.71732641  0.67893527  0.93037697     0.29300
F3979       F  0.72073164  0.68265099  0.90924729    -0.20100
H3980       H  0.74299376  0.65608180  0.93212248     0.17600
H3981       H  0.68350898  0.69107360  0.97179498     0.17600
F3982       F  0.70540984  0.66383437  0.99399530    -0.20100
C3983       C  0.73061657  0.64969732  0.06127034    -0.21600
C3984       C  0.74026097  0.65454230  0.04176020    -0.09600
C3985       C  0.73663008  0.67443103  0.03181404     0.29200
C3986       C  0.72090318  0.68801325  0.03970940    -0.21600
C3987       C  0.70971745  0.68211511  0.05804376    -0.09600
C3988       C  0.71550945  0.66368642  0.06964697     0.29300
F3989       F  0.70488689  0.65811913  0.08776704    -0.20100
H3990       H  0.73304013  0.63420514  0.06873606     0.17600
H3991       H  0.71676488  0.70249378  0.03105654     0.17600
F3992       F  0.74613233  0.67931257  0.01291072    -0.20100
C3993       C  0.41606287  0.85456343  0.06902353    -0.21600
C3994       C  0.39997133  0.85594718  0.05321545    -0.09600
C3995       C  0.37908936  0.86195337  0.05993416     0.29200
C3996       C  0.37436093  0.86505764  0.08178685    -0.21600
C3997       C  0.39035103  0.86301481  0.09758989    -0.09600
C3998       C  0.41146292  0.85831006  0.09076758     0.29300
F3999       F  0.42756969  0.85614565  0.10528237    -0.20100
H4000       H  0.43221873  0.84988398  0.06464814     0.17600
H4001       H  0.35805182  0.86893597  0.08637471     0.17600
F4002       F  0.36285603  0.86387824  0.04553268    -0.20100
C4003       C  0.41017575  0.85839349  0.93279242    -0.21600
C4004       C  0.39271913  0.85010360  0.94437954    -0.09600
C4005       C  0.37276883  0.84840455  0.93338405     0.29200
C4006       C  0.37078905  0.85375591  0.91160503    -0.21600
C4007       C  0.38832676  0.86139484  0.89983046    -0.09600
C4008       C  0.40805185  0.86408897  0.91094400     0.29300
F4009       F  0.42563073  0.87154758  0.90056986    -0.20100
H4010       H  0.42569271  0.85998478  0.94048464     0.17600
H4011       H  0.35539117  0.85152644  0.90382511     0.17600
F4012       F  0.35496603  0.84099135  0.94343872    -0.20100
C4013       C  0.32728765  0.76681472  0.97481732    -0.21600
C4014       C  0.34404490  0.77885852  0.96619290    -0.09600
C4015       C  0.34672485  0.78042999  0.94402321     0.29200
C4016       C  0.33347654  0.76867451  0.93051674    -0.21600
C4017       C  0.31798223  0.75493448  0.93922635    -0.09600
C4018       C  0.31438610  0.75464746  0.96140822     0.29300
F4019       F  0.29925085  0.74172219  0.97016419    -0.20100
H4020       H  0.32520389  0.76566020  0.99199356     0.17600
H4021       H  0.33644035  0.76901669  0.91344271     0.17600
F4022       F  0.36279200  0.79242925  0.93561556    -0.20100
C4023       C  0.32672600  0.79075598  0.04444880    -0.21600
C4024       C  0.34765199  0.79133013  0.05285481    -0.09600
C4025       C  0.35319563  0.77834615  0.07022728     0.29200
C4026       C  0.33926516  0.76221016  0.07643733    -0.21600
C4027       C  0.31996096  0.75911132  0.06522583    -0.09600
C4028       C  0.31281572  0.77440141  0.05049648     0.29300
F4029       F  0.29409082  0.77164475  0.03970996    -0.20100
H4030       H  0.32246753  0.80066441  0.03080716     0.17600
H4031       H  0.34459141  0.75067702  0.08833129     0.17600
F4032       F  0.37335445  0.77886226  0.07853896    -0.20100
C4033       C  0.81152436  0.09199456  0.58879302    -0.21600
C4034       C  0.80291987  0.08399717  0.56942013    -0.09600
C4035       C  0.79877148  0.09876396  0.55293499     0.29200
C4036       C  0.80186112  0.12085562  0.55629621    -0.21600
C4037       C  0.80922035  0.12899516  0.57615537    -0.09600
C4038       C  0.81469635  0.11405452  0.59214458     0.29300
F4039       F  0.82226217  0.12070170  0.61137664    -0.20100
H4040       H  0.81482283  0.08112553  0.60192798     0.17600
H4041       H  0.79771372  0.13171052  0.54339515     0.17600
F4042       F  0.79009171  0.09211207  0.53417192    -0.20100
C4043       C  0.79517386  0.95762453  0.55312262    -0.21600
C4044       C  0.79999964  0.97394415  0.56785484    -0.09600
C4045       C  0.80849554  0.96756904  0.58797639     0.29200
C4046       C  0.81164177  0.94572998  0.59313499    -0.21600
C4047       C  0.80692796  0.92953138  0.57832188    -0.09600
C4048       C  0.79875399  0.93586585  0.55812075     0.29300
F4049       F  0.79342366  0.92089508  0.54334482    -0.20100
H4050       H  0.78821338  0.96166362  0.53773132     0.17600
H4051       H  0.81801706  0.94149477  0.60872122     0.17600
F4052       F  0.81322689  0.98239735  0.60306868    -0.20100
C4053       C  0.73816645  0.98836268  0.64504352    -0.21600
C4054       C  0.73984252  0.98186233  0.62365254    -0.09600
C4055       C  0.72917376  0.96363116  0.61657144     0.29200
C4056       C  0.71410914  0.95403346  0.62973045    -0.21600
C4057       C  0.70986490  0.96270061  0.64995319    -0.09600
C4058       C  0.72320964  0.97857337  0.65841503     0.29300
F4059       F  0.71972664  0.98656120  0.67827703    -0.20100
H4060       H  0.74651144  0.00249962  0.65055033     0.17600
H4061       H  0.70414174  0.94137355  0.62330097     0.17600
F4062       F  0.73082243  0.95739867  0.59590564    -0.20100
C4063       C  0.72724135  0.09024463  0.61912124    -0.21600
C4064       C  0.73569146  0.07059930  0.62578672    -0.09600
C4065       C  0.73235960  0.06339242  0.64687350     0.29200
C4066       C  0.71766819  0.07408366  0.65983628    -0.21600
C4067       C  0.70665597  0.09179549  0.65162632    -0.09600
C4068       C  0.71253618  0.10072883  0.63188762     0.29300
F4069       F  0.70203537  0.11804306  0.62381759    -0.20100
H4070       H  0.73004693  0.09613966  0.60303708     0.17600
H4071       H  0.71315883  0.06719548  0.67510527     0.17600
F4072       F  0.74076334  0.04454093  0.65377462    -0.20100
C4073       C  0.04457814  0.86204470  0.38864806    -0.21600
C4074       C  0.03602033  0.85768150  0.40915398    -0.09600
C4075       C  0.05048716  0.85747044  0.42653067     0.29200
C4076       C  0.07278445  0.86047342  0.42314287    -0.21600
C4077       C  0.08131308  0.86342003  0.40235160    -0.09600
C4078       C  0.06669198  0.86462579  0.38523241     0.29300
F4079       F  0.07373644  0.86792627  0.36496746    -0.20100
H4080       H  0.03413482  0.86243641  0.37477333     0.17600
H4081       H  0.08352047  0.85952451  0.43676349     0.17600
F4082       F  0.04337261  0.85301791  0.44654286    -0.20100
C4083       C  0.90853291  0.84118222  0.42160179    -0.21600
C4084       C  0.92441507  0.85284877  0.41084415    -0.09600
C4085       C  0.91760400  0.86618621  0.39367551     0.29200
C4086       C  0.89553568  0.86801611  0.38802871    -0.21600
C4087       C  0.87965780  0.85627858  0.39899348    -0.09600
C4088       C  0.88680955  0.84256379  0.41576369     0.29300
F4089       F  0.87282667  0.82999326  0.42667696    -0.20100
H4090       H  0.91299847  0.83018715  0.43430179     0.17600
H4091       H  0.89089722  0.87870824  0.37515093     0.17600
F4092       F  0.93225049  0.87743629  0.38223795    -0.20100
C4093       C  0.91534226  0.78910980  0.35933119    -0.21600
C4094       C  0.93763596  0.78968145  0.35715082    -0.09600
C4095       C  0.94776713  0.77877728  0.34036208     0.29200
C4096       C  0.93601720  0.76526840  0.32743637    -0.21600
C4097       C  0.91414018  0.76266959  0.33114177    -0.09600
C4098       C  0.90346397  0.77551102  0.34626263     0.29300
F4099       F  0.88219238  0.77296960  0.35017972    -0.20100
H4100       H  0.90752082  0.79737795  0.37239670     0.17600
H4101       H  0.94425963  0.75564248  0.31560459     0.17600
F4102       F  0.96938839  0.77942835  0.33796118    -0.20100
C4103       C  0.04250608  0.77890233  0.36438447    -0.21600
C4104       C  0.02471916  0.79076024  0.35755066    -0.09600
C4105       C  0.01933498  0.79128548  0.33561757     0.29200
C4106       C  0.02812259  0.77598920  0.32197520    -0.21600
C4107       C  0.04264563  0.76109041  0.33029643    -0.09600
C4108       C  0.05145528  0.76397912  0.35079300     0.29300
F4109       F  0.06664471  0.75040082  0.35861946    -0.20100
H4110       H  0.04763247  0.77913424  0.38097140     0.17600
H4111       H  0.02187164  0.77430009  0.30587730     0.17600
F4112       F  0.00365710  0.80440662  0.32805144    -0.20100
C4113       C  0.03860535  0.62572409  0.82150319    -0.21600
C4114       C  0.03100200  0.60658024  0.81201182    -0.09600
C4115       C  0.04661297  0.59168797  0.80530804     0.29200
C4116       C  0.06869038  0.59609123  0.80735029    -0.21600
C4117       C  0.07643388  0.61542782  0.81627827    -0.09600
C4118       C  0.06089320  0.63006957  0.82372095     0.29300
F4119       F  0.06712908  0.64875763  0.83277648    -0.20100
H4120       H  0.02722880  0.63774663  0.82671842     0.17600
H4121       H  0.07984903  0.58411724  0.80158470     0.17600
F4122       F  0.04066317  0.57292997  0.79615423    -0.20100
C4123       C  0.91127975  0.63481260  0.82074565    -0.21600
C4124       C  0.91977053  0.61428182  0.81611850    -0.09600
C4125       C  0.90533945  0.59702858  0.81547214     0.29200
C4126       C  0.88311065  0.60052661  0.81807320    -0.21600
C4127       C  0.87456783  0.62126101  0.82152470    -0.09600
C4128       C  0.88912787  0.63829845  0.82338739     0.29300
F4129       F  0.88195484  0.65857223  0.82651270    -0.20100
H4130       H  0.92177852  0.64859892  0.82126806     0.17600
H4131       H  0.87245062  0.58691593  0.81682844     0.17600
F4132       F  0.91244916  0.57701204  0.81094214    -0.20100
C4133       C  0.94062504  0.68820107  0.74557012    -0.21600
C4134       C  0.93309993  0.66740901  0.74971762    -0.09600
C4135       C  0.91270528  0.66124552  0.74255285     0.29200
C4136       C  0.90182541  0.67414904  0.72814335    -0.21600
C4137       C  0.91109082  0.69329738  0.72113024    -0.09600
C4138       C  0.92950520  0.70128751  0.73115773     0.29300
F4139       F  0.93822314  0.72015523  0.72483243    -0.20100
H4140       H  0.95624802  0.69322118  0.75126762     0.17600
H4141       H  0.88736444  0.66808321  0.72065246     0.17600
F4142       F  0.90470436  0.64156457  0.74718983    -0.20100
C4143       C  0.03885897  0.64771827  0.73479391    -0.21600
C4144       C  0.02479799  0.65783508  0.74879335    -0.09600
C4145       C  0.02280537  0.68019874  0.74888971     0.29200
C4146       C  0.03250654  0.69211013  0.73274392    -0.21600
C4147       C  0.04385203  0.68142655  0.71672066    -0.09600
C4148       C  0.04839920  0.65945968  0.71868279     0.29300
F4149       F  0.06047315  0.64904974  0.70391132    -0.20100
H4150       H  0.04024510  0.63042230  0.73464992     0.17600
H4151       H  0.02933347  0.70912480  0.73152259     0.17600
F4152       F  0.00914896  0.69001591  0.76263335    -0.20100
C4153       C  0.41231654  0.09834165  0.81410377    -0.21600
C4154       C  0.39461267  0.08449089  0.81406184    -0.09600
C4155       C  0.37407200  0.09369809  0.81789354     0.29200
C4156       C  0.37147626  0.11594255  0.82107521    -0.21600
C4157       C  0.38910601  0.12989116  0.82017915    -0.09600
C4158       C  0.40968759  0.12058787  0.81696184     0.29300
F4159       F  0.42749695  0.13304249  0.81620465    -0.20100
H4160       H  0.42821536  0.09209221  0.81091958     0.17600
H4161       H  0.35548912  0.12233538  0.82343487     0.17600
F4162       F  0.35620781  0.08128581  0.81798749    -0.20100
C4163       C  0.42040204  0.95906106  0.81573978    -0.21600
C4164       C  0.40482129  0.97441461  0.82110515    -0.09600
C4165       C  0.38557909  0.96683949  0.83053981     0.29200
C4166       C  0.38190391  0.94462089  0.83353272    -0.21600
C4167       C  0.39726421  0.92924111  0.82733263    -0.09600
C4168       C  0.41684320  0.93705485  0.81875328     0.29300
F4169       F  0.43266968  0.92344156  0.81260536    -0.20100
H4170       H  0.43531295  0.96402078  0.80835635     0.17600
H4171       H  0.36685835  0.93945768  0.84047908     0.17600
F4172       F  0.36994902  0.98081608  0.83631071    -0.20100
C4173       C  0.32948801  0.98225308  0.75672899    -0.21600
C4174       C  0.35062195  0.97449518  0.75808651    -0.09600
C4175       C  0.35706285  0.95706576  0.74579022     0.29200
C4176       C  0.34381595  0.95014073  0.72942955    -0.21600
C4177       C  0.32383456  0.95998031  0.72603512    -0.09600
C4178       C  0.31601507  0.97510595  0.74046568     0.29300
F4179       F  0.29692399  0.98505906  0.73698038    -0.20100
H4180       H  0.32462369  0.99602893  0.76606369     0.17600
H4181       H  0.34976570  0.93813570  0.71841125     0.17600
F4182       F  0.37737352  0.94925937  0.74730429    -0.20100
C4183       C  0.35167266  0.08316440  0.74111131    -0.21600
C4184       C  0.34501506  0.06260959  0.74689831    -0.09600
C4185       C  0.32408679  0.05569648  0.74209767     0.29200
C4186       C  0.31103405  0.06831787  0.72898727    -0.21600
C4187       C  0.31895700  0.08768038  0.72103590    -0.09600
C4188       C  0.33867326  0.09572582  0.72821962     0.29300
F4189       F  0.34635861  0.11464369  0.72073354    -0.20100
H4190       H  0.36766375  0.08875326  0.74510038     0.17600
H4191       H  0.29586133  0.06202238  0.72329044     0.17600
F4192       F  0.31735899  0.03582875  0.74775536    -0.20100
C4193       C  0.80155870  0.42149552  0.05493503    -0.21600
C4194       C  0.79999335  0.44270374  0.04678560    -0.09600
C4195       C  0.80410757  0.45942114  0.06130525     0.29200
C4196       C  0.80941478  0.45495553  0.08295502    -0.21600
C4197       C  0.81046663  0.43373832  0.09108991    -0.09600
C4198       C  0.80649925  0.41707135  0.07656567     0.29300
F4199       F  0.80731867  0.39638797  0.08319899    -0.20100
H4200       H  0.79843630  0.40800767  0.04456870     0.17600
H4201       H  0.81202825  0.46831593  0.09362411     0.17600
F4202       F  0.80216169  0.48010315  0.05492076    -0.20100
C4203       C  0.81228169  0.43269678  0.93042584    -0.21600
C4204       C  0.80201813  0.45197316  0.93655245    -0.09600
C4205       C  0.79317048  0.46477644  0.92018338     0.29200
C4206       C  0.79440512  0.45847177  0.89871671    -0.21600
C4207       C  0.80454658  0.43921007  0.89242610    -0.09600
C4208       C  0.81361459  0.42639760  0.90871358     0.29300
F4209       F  0.82355670  0.40772457  0.90378936    -0.20100
H4210       H  0.81885410  0.42213846  0.94255556     0.17600
H4211       H  0.78712557  0.46893030  0.88689969     0.17600
F4212       F  0.78246149  0.48312282  0.92484328    -0.20100
C4213       C  0.72821844  0.40539044  0.92063272    -0.21600
C4214       C  0.74133240  0.39946419  0.93779341    -0.09600
C4215       C  0.74011037  0.37867216  0.94634873     0.29200
C4216       C  0.72369015  0.36503388  0.93987269    -0.21600
C4217       C  0.70914617  0.37197501  0.92433125    -0.09600
C4218       C  0.71224863  0.39156831  0.91373309     0.29300
F4219       F  0.69880784  0.39796882  0.89781422    -0.20100
H4220       H  0.72875156  0.42152861  0.91425797     0.17600
H4221       H  0.72184467  0.34954056  0.94745063     0.17600
F4222       F  0.75286001  0.37279188  0.96300788    -0.20100
C4223       C  0.73237950  0.37485310  0.01955252    -0.21600
C4224       C  0.73380407  0.39627048  0.02595056    -0.09600
C4225       C  0.72707640  0.40264229  0.04631422     0.29200
C4226       C  0.71633174  0.38811456  0.05908755    -0.21600
C4227       C  0.71211784  0.36763907  0.05118066    -0.09600
C4228       C  0.72114999  0.36050628  0.03210406     0.29300
F4229       F  0.71742175  0.34039417  0.02485102    -0.20100
H4230       H  0.73798242  0.36978317  0.00398107     0.17600
H4231       H  0.70936155  0.39347352  0.07402577     0.17600
F4232       F  0.72940052  0.42317263  0.05302979    -0.20100
C4233       C  0.57773230  0.84924245  0.05892245    -0.21600
C4234       C  0.55700665  0.84886903  0.04962594    -0.09600
C4235       C  0.53935761  0.85296724  0.06303565     0.29200
C4236       C  0.54250894  0.85701509  0.08502004    -0.21600
C4237       C  0.56325051  0.85674480  0.09430044    -0.09600
C4238       C  0.58083906  0.85289833  0.08081155     0.29300
F4239       F  0.60114289  0.85233860  0.08873940    -0.20100
H4240       H  0.59180368  0.84602090  0.04930582     0.17600
H4241       H  0.52854511  0.85966570  0.09495854     0.17600
F4242       F  0.51903891  0.85213023  0.05521025    -0.20100
C4243       C  0.53452774  0.84600941  0.92382786    -0.21600
C4244       C  0.54791384  0.85400627  0.94004372    -0.09600
C4245       C  0.56652294  0.86531724  0.93349752     0.29200
C4246       C  0.57159555  0.86799647  0.91149904    -0.21600
C4247       C  0.55834229  0.85950973  0.89529169    -0.09600
C4248       C  0.53951705  0.84858707  0.90205046     0.29300
F4249       F  0.52584088  0.83975718  0.88762890    -0.20100
H4250       H  0.52031929  0.83693777  0.92797980     0.17600
H4251       H  0.58597696  0.87669349  0.90717388     0.17600
F4252       F  0.58012011  0.87349164  0.94834694    -0.20100
C4253       C  0.59178301  0.77846067  0.92331884    -0.21600
C4254       C  0.59880701  0.79264377  0.93900993    -0.09600
C4255       C  0.62043898  0.79277111  0.94539078     0.29200
C4256       C  0.63362055  0.77572554  0.93975329    -0.21600
C4257       C  0.62505675  0.75913992  0.92751815    -0.09600
C4258       C  0.60490541  0.76151458  0.91760027     0.29300
F4259       F  0.59710324  0.74633348  0.90417374    -0.20100
H4260       H  0.57514650  0.77846188  0.91819833     0.17600
H4261       H  0.64943493  0.77429612  0.94686347     0.17600
F4262       F  0.62737390  0.80673637  0.96049834    -0.20100
C4263       C  0.62844230  0.77357857  0.01471189    -0.21600
C4264       C  0.61006452  0.78120997  0.02516611    -0.09600
C4265       C  0.60767677  0.77831170  0.04721725     0.29200
C4266       C  0.62253600  0.76596358  0.05832858    -0.21600
C4267       C  0.63950205  0.75614894  0.04740143    -0.09600
C4268       C  0.64308313  0.76075358  0.02578090     0.29300
F4269       F  0.65898491  0.75069815  0.01488354    -0.20100
H4270       H  0.63028675  0.77573621  0.99759998     0.17600
H4271       H  0.61939103  0.76202364  0.07492950     0.17600
F4272       F  0.59013649  0.78595390  0.05757216    -0.20100
C4273       C  0.65775152  0.45530863  0.05042954    -0.21600
C4274       C  0.64832435  0.47000511  0.06448878    -0.09600
C4275       C  0.63738712  0.46173299  0.08253096     0.29200
C4276       C  0.63693704  0.43955818  0.08687955    -0.21600
C4277       C  0.64753719  0.42489630  0.07351379    -0.09600
C4278       C  0.65752054  0.43318696  0.05482383     0.29300
F4279       F  0.66804507  0.42008607  0.04108222    -0.20100
H4280       H  0.66688172  0.46104984  0.03687086     0.17600
H4281       H  0.62877778  0.43394633  0.10108000     0.17600
F4282       F  0.62806416  0.47529402  0.09668262    -0.20100
C4283       C  0.64415096  0.58767320  0.08596643    -0.21600
C4284       C  0.65166252  0.58133793  0.06553707    -0.09600
C4285       C  0.65616764  0.59767753  0.05069256     0.29200
C4286       C  0.65372762  0.61935056  0.05624981    -0.21600
C4287       C  0.64679405  0.62580738  0.07683365    -0.09600
C4288       C  0.64174307  0.60950349  0.09156395     0.29300
F4289       F  0.63512040  0.61456067  0.11157541    -0.20100
H4290       H  0.64082187  0.57567455  0.09801848     0.17600
H4291       H  0.65764670  0.63120417  0.04422835     0.17600
F4292       F  0.66352653  0.59284604  0.03086357    -0.20100
C4293       C  0.71984283  0.58598063  0.11945108    -0.21600
C4294       C  0.71676106  0.56406836  0.12218963    -0.09600
C4295       C  0.72681621  0.55302340  0.13908279     0.29200
C4296       C  0.74153596  0.56345457  0.15194124    -0.21600
C4297       C  0.74598416  0.58494638  0.14811057    -0.09600
C4298       C  0.73457246  0.59648580  0.13237082     0.29300
F4299       F  0.73937036  0.61722507  0.12797299    -0.20100
H4300       H  0.71259705  0.59437949  0.10604760     0.17600
H4301       H  0.75016005  0.55457769  0.16417509     0.17600
F4302       F  0.72396385  0.53167036  0.14172234    -0.20100
C4303       C  0.72796007  0.46096666  0.10777831    -0.21600
C4304       C  0.71478204  0.47722941  0.11579912    -0.09600
C4305       C  0.71455852  0.48138502  0.13790293     0.29200
C4306       C  0.73120918  0.47353973  0.15055649    -0.21600
C4307       C  0.74730218  0.46118725  0.14108224    -0.09600
C4308       C  0.74449096  0.45312308  0.12034247     0.29300
F4309       F  0.75889828  0.43937292  0.11157866    -0.20100
H4310       H  0.72748562  0.45664551  0.09100237     0.17600
H4311       H  0.73268316  0.47885614  0.16697429     0.17600
F4312       F  0.70036039  0.49538084  0.14656776    -0.20100
C4313       C  0.40523229  0.09108560  0.66968848    -0.21600
C4314       C  0.42201750  0.10455031  0.66293973    -0.09600
C4315       C  0.41628961  0.12400845  0.65267990     0.29200
C4316       C  0.39455177  0.13015651  0.65041876    -0.21600
C4317       C  0.37792496  0.11686202  0.65773185    -0.09600
C4318       C  0.38359086  0.09701294  0.66700046     0.29300
F4319       F  0.36813223  0.08369602  0.67450571    -0.20100
H4320       H  0.40882841  0.07619807  0.67787538     0.17600
H4321       H  0.39071181  0.14531305  0.64286336     0.17600
F4322       F  0.43168744  0.13747430  0.64534923    -0.20100
C4323       C  0.54556305  0.09639168  0.67005405    -0.21600
C4324       C  0.53061999  0.11299476  0.66753348    -0.09600
C4325       C  0.53837507  0.13310110  0.66034078     0.29200
C4326       C  0.56050290  0.13664141  0.65688487    -0.21600
C4327       C  0.57564962  0.12036019  0.66067948    -0.09600
C4328       C  0.56764335  0.09992119  0.66679142     0.29300
F4329       F  0.58118337  0.08319934  0.67019794    -0.20100
H4330       H  0.54031233  0.08088022  0.67576008     0.17600
H4331       H  0.56582368  0.15237696  0.65193497     0.17600
F4332       F  0.52455163  0.14963676  0.65716224    -0.20100
C4333       C  0.49822396  0.18344117  0.74476723    -0.21600
C4334       C  0.50699978  0.16412640  0.73734017    -0.09600
C4335       C  0.52872931  0.15953263  0.74071038     0.29200
C4336       C  0.54098685  0.17299789  0.75333630    -0.21600
C4337       C  0.53187082  0.19127790  0.76247064    -0.09600
C4338       C  0.51064497  0.19702086  0.75752727     0.29300
F4339       F  0.50133095  0.21420851  0.76699429    -0.20100
H4340       H  0.48132115  0.18698491  0.74235653     0.17600
H4341       H  0.55707887  0.16789985  0.75788097     0.17600
F4342       F  0.53754244  0.14110738  0.73327841    -0.20100
C4343       C  0.40365466  0.15027777  0.73722477    -0.21600
C4344       C  0.42062578  0.15575416  0.72377799    -0.09600
C4345       C  0.42892068  0.17663359  0.72373184     0.29200
C4346       C  0.42334847  0.19052707  0.74006740    -0.21600
C4347       C  0.40869465  0.18377294  0.75542427    -0.09600
C4348       C  0.39747353  0.16447461  0.75303924     0.29300
F4349       F  0.38207239  0.15858594  0.76721769    -0.20100
H4350       H  0.39726743  0.13415545  0.73731550     0.17600
H4351       H  0.43118444  0.20592969  0.74138317     0.17600
F4352       F  0.44516017  0.18210535  0.71035270    -0.20100
C4353       C  0.08181123  0.70484680  0.42569319    -0.21600
C4354       C  0.06096374  0.70726216  0.43424891    -0.09600
C4355       C  0.04343062  0.70433844  0.42027400     0.29200
C4356       C  0.04688479  0.70002428  0.39832781    -0.21600
C4357       C  0.06785075  0.69877699  0.38972192    -0.09600
C4358       C  0.08524659  0.70085749  0.40393722     0.29300
F4359       F  0.10577158  0.69938890  0.39683628    -0.20100
H4360       H  0.09581807  0.70681752  0.43579125     0.17600
H4361       H  0.03308260  0.69850019  0.38788157     0.17600
F4362       F  0.02303864  0.70669302  0.42748816    -0.20100
C4363       C  0.04883471  0.71286302  0.58131369    -0.21600
C4364       C  0.06663021  0.69994382  0.58706488    -0.09600
C4365       C  0.07752669  0.68933216  0.57042125     0.29200
C4366       C  0.07110568  0.69220275  0.54884252    -0.21600
C4367       C  0.05345898  0.70540761  0.54326323    -0.09600
C4368       C  0.04229156  0.71549186  0.56000372     0.29300
F4369       F  0.02551409  0.72879904  0.55585886    -0.20100
H4370       H  0.03982001  0.72132849  0.59343527     0.17600
H4371       H  0.08026687  0.68438634  0.53640839     0.17600
F4372       F  0.09434438  0.67623044  0.57488630    -0.20100
C4373       C  0.11021453  0.79633372  0.56756063    -0.21600
C4374       C  0.13186377  0.79563695  0.56173360    -0.09600
C4375       C  0.13988130  0.77895207  0.54926490     0.29200
C4376       C  0.12561915  0.76424475  0.54058997    -0.21600
C4377       C  0.10354933  0.76669288  0.54414200    -0.09600
C4378       C  0.09594226  0.78195390  0.55858633     0.29300
F4379       F  0.07453249  0.78475461  0.56159066    -0.20100
H4380       H  0.10417281  0.80887132  0.57785618     0.17600
H4381       H  0.13144401  0.75275098  0.52901507     0.17600
F4382       F  0.16103496  0.77792990  0.54420913    -0.20100
C4383       C  0.14931710  0.78951483  0.45092524    -0.21600
C4384       C  0.14291418  0.79758429  0.43105376    -0.09600
C4385       C  0.12361745  0.79083277  0.42163998     0.29200
C4386       C  0.10914827  0.77906049  0.43360514    -0.21600
C4387       C  0.11420515  0.77359628  0.45469506    -0.09600
C4388       C  0.13494210  0.77730504  0.46281687     0.29300
F4389       F  0.14017765  0.77175698  0.48318777    -0.20100
H4390       H  0.16415878  0.79482594  0.45827168     0.17600
H4391       H  0.09335234  0.77576326  0.42706631     0.17600
F4392       F  0.11750437  0.79827711  0.40211524    -0.20100
C4393       C  0.40716384  0.70258569  0.06541547    -0.21600
C4394       C  0.42136115  0.70474078  0.08280156    -0.09600
C4395       C  0.41267747  0.70187102  0.10362127     0.29200
C4396       C  0.39067629  0.69761760  0.10677847    -0.21600
C4397       C  0.37642552  0.69582397  0.08943861    -0.09600
C4398       C  0.38510860  0.69824192  0.06860454     0.29300
F4399       F  0.37209119  0.69745043  0.05118931    -0.20100
H4400       H  0.41295218  0.70511663  0.04928094     0.17600
H4401       H  0.38474809  0.69586524  0.12296680     0.17600
F4402       F  0.42539118  0.70349092  0.12121026    -0.20100
C4403       C  0.54615687  0.70063487  0.05425480    -0.21600
C4404       C  0.53090602  0.69775898  0.07063231    -0.09600
C4405       C  0.53870900  0.69092778  0.09084513     0.29200
C4406       C  0.56096825  0.68840140  0.09469005    -0.21600
C4407       C  0.57621392  0.69196332  0.07845978    -0.09600
C4408       C  0.56832911  0.69760328  0.05796097     0.29300
F4409       F  0.58214129  0.70138444  0.04163456    -0.20100
H4410       H  0.54098636  0.70602740  0.03857717     0.17600
H4411       H  0.56631515  0.68380682  0.11055982     0.17600
F4412       F  0.52495272  0.68762487  0.10731666    -0.20100
C4413       C  0.52557148  0.75820984  0.14451407    -0.21600
C4414       C  0.53383909  0.75870652  0.12363566    -0.09600
C4415       C  0.55009893  0.77311594  0.11841909     0.29200
C4416       C  0.55382001  0.79028610  0.13189988    -0.21600
C4417       C  0.54167312  0.79249527  0.15064700    -0.09600
C4418       C  0.52908876  0.77554262  0.15801626     0.29300
F4419       F  0.51765825  0.77728784  0.17638830    -0.20100
H4420       H  0.51311131  0.74687213  0.14870540     0.17600
H4421       H  0.56442424  0.80297506  0.12662941     0.17600
F4422       F  0.55890765  0.77309328  0.09857883    -0.20100
C4423       C  0.42888673  0.77392368  0.13561401    -0.21600
C4424       C  0.45105804  0.77649874  0.13362193    -0.09600
C4425       C  0.46193252  0.79169149  0.14602979     0.29200
C4426       C  0.45032718  0.80535830  0.15924523    -0.21600
C4427       C  0.42794464  0.80374391  0.16016769    -0.09600
C4428       C  0.41729997  0.78752347  0.14888134     0.29300
F4429       F  0.39556637  0.78649150  0.14867933    -0.20100
H4430       H  0.42041610  0.76246324  0.12572244     0.17600
H4431       H  0.45855906  0.81828065  0.16736916     0.17600
F4432       F  0.48336964  0.79473434  0.14365700    -0.20100
C4433       C  0.07883962  0.44510331  0.65797912    -0.21600
C4434       C  0.06347187  0.42972560  0.66380057    -0.09600
C4435       C  0.04330722  0.43738562  0.67126140     0.29200
C4436       C  0.03924155  0.45948675  0.67364808    -0.21600
C4437       C  0.05506124  0.47471576  0.66889772    -0.09600
C4438       C  0.07481465  0.46717299  0.66062028     0.29300
F4439       F  0.09063905  0.48123231  0.65568497    -0.20100
H4440       H  0.09433507  0.44004499  0.65198982     0.17600
H4441       H  0.02411044  0.46460349  0.68047287     0.17600
F4442       F  0.02752221  0.42354513  0.67691918    -0.20100
C4443       C  0.03786917  0.60073469  0.66310806    -0.21600
C4444       C  0.05224927  0.58346918  0.66093253    -0.09600
C4445       C  0.07351375  0.58844351  0.65444272     0.29200
C4446       C  0.08005273  0.60985834  0.65083079    -0.21600
C4447       C  0.06560354  0.62705084  0.65305355    -0.09600
C4448       C  0.04429142  0.62203742  0.65911243     0.29300
F4449       F  0.02974610  0.63791101  0.66227132    -0.20100
H4450       H  0.02162358  0.59783373  0.66850920     0.17600
H4451       H  0.09652024  0.61298460  0.64629397     0.17600
F4452       F  0.08839573  0.57269658  0.65236896    -0.20100
C4453       C  0.12198004  0.57614207  0.72205909    -0.21600
C4454       C  0.10107444  0.58439113  0.72383274    -0.09600
C4455       C  0.09658011  0.60058408  0.73852213     0.29200
C4456       C  0.11192222  0.60593054  0.75363306    -0.21600
C4457       C  0.13166655  0.59522389  0.75391408    -0.09600
C4458       C  0.13734787  0.58140057  0.73736274     0.29300
F4459       F  0.15696275  0.57191397  0.73696593    -0.20100
H4460       H  0.12546868  0.56344171  0.71080585     0.17600
H4461       H  0.10784862  0.61723211  0.76609282     0.17600
F4462       F  0.07643994  0.60870661  0.74026405    -0.20100
C4463       C  0.11770530  0.49031042  0.73714398    -0.21600
C4464       C  0.10393889  0.50531123  0.74630302    -0.09600
C4465       C  0.10676710  0.51209690  0.76740603     0.29200
C4466       C  0.12268809  0.50289326  0.77978942    -0.21600
C4467       C  0.13540629  0.48646078  0.77133571    -0.09600
C4468       C  0.13336891  0.48065441  0.74969210     0.29300
F4469       F  0.14580626  0.46512676  0.74095436    -0.20100
H4470       H  0.11574531  0.48553182  0.72059333     0.17600
H4471       H  0.12404007  0.50764033  0.79640052     0.17600
F4472       F  0.09395103  0.52740427  0.77605434    -0.20100
C4473       C  0.64157980  0.12480378  0.43108919    -0.21600
C4474       C  0.64878170  0.10408282  0.43719205    -0.09600
C4475       C  0.65279067  0.08936818  0.42073187     0.29200
C4476       C  0.65036674  0.09529529  0.39917947    -0.21600
C4477       C  0.64392321  0.11616552  0.39284020    -0.09600
C4478       C  0.63916566  0.13080190  0.40928151     0.29300
F4479       F  0.63289422  0.15104117  0.40440620    -0.20100
H4480       H  0.63858678  0.13674233  0.44323873     0.17600
H4481       H  0.65394713  0.08324532  0.38729559     0.17600
F4482       F  0.65967497  0.06924544  0.42533189    -0.20100
C4483       C  0.64563591  0.13203358  0.55378075    -0.21600
C4484       C  0.64916522  0.11106035  0.54608873    -0.09600
C4485       C  0.64735931  0.09407509  0.56083816     0.29200
C4486       C  0.64352531  0.09824560  0.58274443    -0.21600
C4487       C  0.64157655  0.11940983  0.59053232    -0.09600
C4488       C  0.64204520  0.13619552  0.57550949     0.29300
F4489       F  0.63949875  0.15681944  0.58180163    -0.20100
H4490       H  0.64659681  0.14559960  0.54300307     0.17600
H4491       H  0.64309074  0.08488531  0.59380362     0.17600
F4492       F  0.65060326  0.07359933  0.55443263    -0.20100
C4493       C  0.73296300  0.17778394  0.51105801    -0.21600
C4494       C  0.72037712  0.16350818  0.52284788    -0.09600
C4495       C  0.72029688  0.16380991  0.54513473     0.29200
C4496       C  0.73442957  0.17715762  0.55572303    -0.21600
C4497       C  0.74899282  0.18957860  0.54393220    -0.09600
C4498       C  0.74755222  0.19073048  0.52160562     0.29300
F4499       F  0.76108294  0.20322482  0.51005653    -0.20100
H4500       H  0.73292908  0.17741893  0.49373806     0.17600
H4501       H  0.73530967  0.17631351  0.57301300     0.17600
F4502       F  0.70782699  0.15006622  0.55646712    -0.20100
C4503       C  0.72557894  0.14938352  0.42354054    -0.21600
C4504       C  0.71189742  0.15507964  0.44017556    -0.09600
C4505       C  0.71131682  0.17636745  0.44747349     0.29200
C4506       C  0.72709872  0.19076145  0.44088708    -0.21600
C4507       C  0.74304022  0.18377109  0.42688466    -0.09600
C4508       C  0.74110233  0.16374994  0.41677310     0.29300
F4509       F  0.75579390  0.15719319  0.40216047    -0.20100
H4510       H  0.72611752  0.13302529  0.41783060     0.17600
H4511       H  0.72828492  0.20626767  0.44850444     0.17600
F4512       F  0.69784832  0.18209465  0.46351529    -0.20100
loop_ 
_geom_bond_atom_site_label_1 
_geom_bond_atom_site_label_2 
_geom_bond_distance 
_geom_bond_site_symmetry_2 
_ccdc_geom_bond_type 
O1          Cr19   1.945       .  S
O1            C9   1.256       .  A
O2          Cr19   1.972       .  S
O2            C3   1.251       .  A
C3            O4   1.255       .  A
C3         C4494   1.428       .  S
O4          Cr20   1.961       .  S
O5          Cr20   2.000       .  S
O5            C6   1.261       .  A
C6            O7   1.269       .  A
C6          C248   1.492       .  S
O7          Cr21   2.015       .  S
O8          Cr21   2.070       .  S
O8            C9   1.285       .  A
C9         C4484   1.507       .  S
O10         Cr19   1.976       .  S
O10          C18   1.252       .  A
O11         Cr19   1.960       .  S
O11          C12   1.256       .  A
C12          O13   1.271       .  A
C12        C4504   1.447       .  S
O13         Cr20   2.005       .  S
O14         Cr20   1.966       .  S
O14          C15   1.259       .  A
C15          O16   1.274       .  A
C15         C389   1.470       .  S
O16         Cr21   2.021       .  S
O17         Cr21   2.035       .  S
O17          C18   1.264       .  A
C18        C4474   1.514       .  S
Cr19         O22   1.797       .  S
Cr20         O22   1.768       .  S
Cr21         O22   1.765       .  S
O23         Cr41   1.986       .  S
O23          C31   1.260       .  A
O24         Cr41   1.958       .  S
O24          C25   1.251       .  A
C25          O26   1.263       .  A
C25        C4454   1.438       .  S
O26         Cr42   1.981       .  S
O27         Cr42   1.948       .  S
O27          C28   1.249       .  A
C28          O29   1.273       .  A
C28         C204   1.460   1_455  S
O29         Cr43   2.045       .  S
O30         Cr43   2.037       .  S
O30          C31   1.269       .  A
C31        C4444   1.521       .  S
O32         Cr41   1.954       .  S
O32          C40   1.254       .  A
O33         Cr41   1.981       .  S
O33          C34   1.260       .  A
C34          O35   1.256       .  A
C34        C4464   1.431       .  S
O35         Cr42   1.943       .  S
O36         Cr42   2.016       .  S
O36          C37   1.264       .  A
C37          O38   1.269       .  A
C37         C345   1.479       .  S
O38         Cr43   2.003       .  S
O39         Cr43   2.070       .  S
O39          C40   1.284       .  A
C40        C4437   1.505       .  S
Cr41         O44   1.783       .  S
Cr42         O44   1.761       .  S
Cr43         O44   1.760       .  S
O45         Cr63   1.995       .  S
O45          C53   1.262       .  A
O46         Cr63   1.952       .  S
O46          C47   1.250       .  A
C47          O48   1.270       .  A
C47        C4414   1.441       .  S
O48         Cr64   1.998       .  S
O49         Cr64   1.962       .  S
O49          C50   1.256       .  A
C50          O51   1.277       .  A
C50         C138   1.479       .  S
O51         Cr65   2.045       .  S
O52         Cr65   2.020       .  S
O52          C53   1.263       .  A
C53        C4404   1.517       .  S
O54         Cr63   1.960       .  S
O54          C62   1.256       .  A
O55         Cr63   2.001       .  S
O55          C56   1.260       .  A
C56          O57   1.257       .  A
C56        C4424   1.448       .  S
O57         Cr64   1.965       .  S
O58         Cr64   2.012       .  S
O58          C59   1.263       .  A
C59          O60   1.264       .  A
C59         C279   1.474       .  S
O60         Cr65   1.994       .  S
O61         Cr65   2.074       .  S
O61          C62   1.286       .  A
C62        C4394   1.517       .  S
Cr63         O66   1.790       .  S
Cr64         O66   1.768       .  S
Cr65         O66   1.764       .  S
O67         Cr85   1.946       .  S
O67          C75   1.256       .  A
O68         Cr85   1.986       .  S
O68          C69   1.258       .  A
C69          O70   1.262       .  A
C69        C4387   1.450       .  S
O70         Cr86   1.970       .  S
O71         Cr86   2.003       .  S
O71          C72   1.260       .  A
C72          O73   1.265       .  A
C72         C226   1.474       .  S
O73         Cr87   1.988       .  S
O74         Cr87   2.064       .  S
O74          C75   1.283       .  A
C75        C4354   1.507       .  S
O76         Cr85   1.983       .  S
O76          C84   1.255       .  A
O77         Cr85   1.958       .  S
O77          C78   1.254       .  A
C78          O79   1.264       .  A
C78        C4377   1.433       .  S
O79         Cr86   1.979       .  S
O80         Cr86   1.968       .  S
O80          C81   1.257       .  A
C81          O82   1.273       .  A
C81         C367   1.464       .  S
O82         Cr87   2.029       .  S
O83         Cr87   2.014       .  S
O83          C84   1.261       .  A
C84        C4367   1.507       .  S
Cr85         O88   1.785       .  S
Cr86         O88   1.763       .  S
Cr87         O88   1.762       .  S
O89        Cr107   1.987       .  S
O89          C97   1.258       .  A
O90        Cr107   1.951       .  S
O90          C91   1.250       .  A
C91          O92   1.267       .  A
C91        C4344   1.431       .  S
O92        Cr108   1.985       .  S
O93        Cr108   1.967       .  S
O93          C94   1.258       .  A
C94          O95   1.276       .  A
C94         C182   1.480       .  S
O95        Cr109   2.042       .  S
O96        Cr109   2.020       .  S
O96          C97   1.262       .  A
C97        C4314   1.510       .  S
O98        Cr107   1.954       .  S
O98         C106   1.256       .  A
O99        Cr107   2.002       .  S
O99         C100   1.260       .  A
C100        O101   1.260       .  A
C100       C4334   1.455       .  S
O101       Cr108   1.969       .  S
O102       Cr108   1.998       .  S
O102        C103   1.259       .  A
C103        O104   1.266       .  A
C103        C311   1.468       .  S
O104       Cr109   1.996       .  S
O105       Cr109   2.071       .  S
O105        C106   1.286       .  A
C106       C4324   1.506       .  S
Cr107       O110   1.791       .  S
Cr108       O110   1.766       .  S
Cr109       O110   1.761       .  S
O111       Cr129   1.940       .  S
O111        C119   1.251       .  A
O112       Cr129   1.989       .  S
O112        C113   1.263       .  A
C113        O114   1.261       .  A
C113       C4304   1.455       .  S
O114       Cr130   1.958       .  S
O115       Cr130   1.967       .  S
O115        C116   1.250       .  A
C116        O117   1.267       .  A
C116        C160   1.470       .  S
O117       Cr131   2.012       .  S
O118       Cr131   2.057       .  S
O118        C119   1.282       .  A
C119       C4274   1.498       .  S
O120       Cr129   1.983       .  S
O120        C128   1.256       .  A
O121       Cr129   1.968       .  S
O121        C122   1.254       .  A
C122        O123   1.257       .  A
C122       C4294   1.439       .  S
O123       Cr130   1.970       .  S
O124       Cr130   1.979       .  S
O124        C125   1.265       .  A
C125        O126   1.275       .  A
C125        C301   1.469       .  S
O126       Cr131   2.029       .  S
O127       Cr131   2.033       .  S
O127        C128   1.268       .  A
C128       C4284   1.514       .  S
Cr129       O132   1.795       .  S
Cr130       O132   1.762       .  S
Cr131       O132   1.761       .  S
O133       Cr151   1.947   1_554  S
O133        C141   1.256       .  A
O134       Cr151   1.992       .  S
O134        C135   1.258   1_556  A
C135        O136   1.260       .  A
C135       C4264   1.451       .  S
O136       Cr152   1.974   1_554  S
O137       Cr152   2.006   1_554  S
O137        C138   1.260       .  A
C138        O139   1.268       .  A
O139       Cr153   2.006   1_554  S
O140       Cr153   2.057   1_554  S
O140        C141   1.282       .  A
C141       C4234   1.504       .  S
O142       Cr151   1.988       .  S
O142        C150   1.257       .  A
O143       Cr151   1.951       .  S
O143        C144   1.251       .  A
C144        O145   1.269       .  A
C144       C4254   1.436       .  S
O145       Cr152   1.993       .  S
O146       Cr152   1.962       .  S
O146        C147   1.258       .  A
C147        O148   1.271       .  A
C147       C1951   1.463       .  S
O148       Cr153   2.017       .  S
O149       Cr153   2.026       .  S
O149        C150   1.264       .  A
C150       C4244   1.518       .  S
Cr151       O154   1.790       .  S
Cr152       O154   1.766       .  S
Cr153       O154   1.763       .  S
O155       Cr173   1.956   1_554  S
O155        C163   1.255       .  A
O156       Cr173   1.968       .  S
O156        C157   1.257   1_556  A
C157        O158   1.260       .  A
C157       C4224   1.435       .  S
O158       Cr174   1.958   1_554  S
O159       Cr174   1.994   1_554  S
O159        C160   1.256       .  A
C160        O161   1.267       .  A
O161       Cr175   1.992   1_554  S
O162       Cr175   2.085   1_554  S
O162        C163   1.288       .  A
C163       C4194   1.525       .  S
O164       Cr173   1.975       .  S
O164        C172   1.254       .  A
O165       Cr173   1.968       .  S
O165        C166   1.255       .  A
C166        O167   1.261       .  A
C166       C4214   1.439       .  S
O167       Cr174   1.975       .  S
O168       Cr174   1.969       .  S
O168        C169   1.259       .  A
C169        O170   1.277       .  A
C169       C1973   1.471       .  S
O170       Cr175   2.043       .  S
O171       Cr175   2.020       .  S
O171        C172   1.263       .  A
C172       C4204   1.509       .  S
Cr173       O176   1.789       .  S
Cr174       O176   1.765       .  S
Cr175       O176   1.760       .  S
O177       Cr195   1.957       .  S
O177        C185   1.254       .  A
O178       Cr195   1.996       .  S
O178        C179   1.260       .  A
C179        O180   1.260       .  A
C179       C4184   1.450       .  S
O180       Cr196   1.961       .  S
O181       Cr196   2.010       .  S
O181        C182   1.260       .  A
C182        O183   1.265       .  A
O183       Cr197   2.004       .  S
O184       Cr197   2.068       .  S
O184        C185   1.285       .  A
C185       C4154   1.514       .  S
O186       Cr195   1.994       .  S
O186        C194   1.260   1_545  A
O187       Cr195   1.953   1_565  S
O187        C188   1.250       .  A
C188        O189   1.267   1_565  A
C188       C4174   1.437       .  S
O189       Cr196   1.992       .  S
O190       Cr196   1.965   1_565  S
O190        C191   1.259       .  A
C191        O192   1.278   1_565  A
C191       C1885   1.477       .  S
O192       Cr197   2.041       .  S
O193       Cr197   2.018       .  S
O193        C194   1.264   1_545  A
C194       C4164   1.515       .  S
Cr195       O198   1.794       .  S
Cr196       O198   1.767       .  S
Cr197       O198   1.760       .  S
O199       Cr217   1.994       .  S
O199        C207   1.259   1_655  A
O200       Cr217   1.950   1_455  S
O200        C201   1.250       .  A
C201        O202   1.266   1_455  A
C201       C4144   1.436       .  S
O202       Cr218   1.997       .  S
O203       Cr218   1.962       .  S
O203        C204   1.258       .  A
C204        O205   1.274       .  A
O205       Cr219   2.031       .  S
O206       Cr219   2.030   1_455  S
O206        C207   1.265       .  A
C207       C4114   1.521       .  S
O208       Cr217   1.939       .  S
O208        C216   1.253       .  A
O209       Cr217   2.002       .  S
O209        C210   1.263       .  A
C210        O211   1.260       .  A
C210       C4134   1.455       .  S
O211       Cr218   1.957       .  S
O212       Cr218   2.012       .  S
O212        C213   1.262       .  A
C213        O214   1.266       .  A
C213       C1929   1.490       .  S
O214       Cr219   2.002       .  S
O215       Cr219   2.063       .  S
O215        C216   1.285       .  A
C216       C4124   1.505       .  S
Cr217       O220   1.796       .  S
Cr218       O220   1.762       .  S
Cr219       O220   1.763       .  S
O221       Cr239   1.940   1_455  S
O221        C229   1.254       .  A
O222       Cr239   1.984       .  S
O222        C223   1.259   1_655  A
C223        O224   1.263       .  A
C223       C4104   1.460       .  S
O224       Cr240   1.972   1_455  S
O225       Cr240   1.977   1_455  S
O225        C226   1.255       .  A
C226        O227   1.265       .  A
O227       Cr241   2.005   1_455  S
O228       Cr241   2.069   1_455  S
O228        C229   1.285       .  A
C229       C4074   1.511       .  S
O230       Cr239   1.984       .  S
O230        C238   1.253       .  A
O231       Cr239   1.966       .  S
O231        C232   1.255       .  A
C232        O233   1.262       .  A
C232       C4094   1.443       .  S
O233       Cr240   1.980       .  S
O234       Cr240   1.986       .  S
O234        C235   1.265       .  A
C235        O236   1.275       .  A
C235       C1863   1.480       .  S
O236       Cr241   2.034       .  S
O237       Cr241   2.031       .  S
O237        C238   1.266       .  A
C238       C4084   1.515       .  S
Cr239       O242   1.796       .  S
Cr240       O242   1.764       .  S
Cr241       O242   1.765       .  S
O243       Cr261   1.942       .  S
O243        C251   1.253       .  A
O244       Cr261   1.993       .  S
O244        C245   1.261       .  A
C245        O246   1.261       .  A
C245       C4064   1.453       .  S
O246       Cr262   1.964       .  S
O247       Cr262   2.019       .  S
O247        C248   1.264       .  A
C248        O249   1.267       .  A
O249       Cr263   2.003       .  S
O250       Cr263   2.067       .  S
O250        C251   1.284       .  A
C251       C4034   1.503       .  S
O252       Cr261   1.988       .  S
O252        C260   1.258   1_545  A
O253       Cr261   1.955   1_565  S
O253        C254   1.252       .  A
C254        O255   1.267   1_565  A
C254       C4054   1.444       .  S
O255       Cr262   2.004       .  S
O256       Cr262   1.980       .  S
O256        C257   1.262       .  A
C257        O258   1.274       .  A
C257       C1907   1.474   1_545  S
O258       Cr263   2.032       .  S
O259       Cr263   2.029       .  S
O259        C260   1.264   1_545  A
C260       C4044   1.516       .  S
Cr261       O264   1.794       .  S
Cr262       O264   1.763       .  S
Cr263       O264   1.764       .  S
O265       Cr283   1.954   1_556  S
O265        C273   1.255       .  A
O266       Cr283   1.993   1_556  S
O266        C267   1.260       .  A
C267        O268   1.258       .  A
C267       C4014   1.444       .  S
O268       Cr284   1.967   1_556  S
O269       Cr284   2.004   1_556  S
O269        C270   1.258       .  A
C270        O271   1.269       .  A
C270       C1942   1.477       .  S
O271       Cr285   2.006       .  S
O272       Cr285   2.075       .  S
O272        C273   1.284       .  A
C273       C4004   1.518       .  S
O274       Cr283   1.990       .  S
O274        C282   1.259       .  A
O275       Cr283   1.959       .  S
O275        C276   1.252       .  A
C276        O277   1.267       .  A
C276       C4024   1.443       .  S
O277       Cr284   1.994       .  S
O278       Cr284   1.964       .  S
O278        C279   1.259       .  A
C279        O280   1.276       .  A
O280       Cr285   2.036   1_554  S
O281       Cr285   2.025   1_554  S
O281        C282   1.264       .  A
C282       C3994   1.512       .  S
Cr283       O286   1.787       .  S
Cr284       O286   1.768       .  S
Cr285       O286   1.762   1_556  S
O287       Cr305   1.942       .  S
O287        C295   1.253       .  A
O288       Cr305   1.979       .  S
O288        C289   1.258       .  A
C289        O290   1.256       .  A
C289       C3974   1.426       .  S
O290       Cr306   1.953       .  S
O291       Cr306   2.000       .  S
O291        C292   1.260       .  A
C292        O293   1.267       .  A
C292       C1964   1.477       .  S
O293       Cr307   1.998       .  S
O294       Cr307   2.085       .  S
O294        C295   1.287       .  A
C295       C3964   1.519       .  S
O296       Cr305   1.984   1_554  S
O296        C304   1.257       .  A
O297       Cr305   1.960   1_554  S
O297        C298   1.252       .  A
C298        O299   1.262       .  A
C298       C3984   1.436       .  S
O299       Cr306   1.981   1_554  S
O300       Cr306   1.960   1_554  S
O300        C301   1.255       .  A
C301        O302   1.277       .  A
O302       Cr307   2.046   1_554  S
O303       Cr307   2.028   1_554  S
O303        C304   1.265       .  A
C304       C3954   1.518       .  S
Cr305       O308   1.787       .  S
Cr306       O308   1.764       .  S
Cr307       O308   1.762       .  S
O309       Cr327   2.024       .  S
O309        C317   1.263       .  A
O310       Cr327   2.035       .  S
O310        C311   1.276       .  A
C311        O312   1.258       .  A
O312       Cr328   1.958       .  S
O313       Cr328   1.983       .  S
O313        C314   1.263       .  A
C314        O315   1.252       .  A
C314       C3947   1.435       .  S
O315       Cr329   1.958       .  S
O316       Cr329   1.982       .  S
O316        C317   1.258       .  A
C317       C3914   1.507       .  S
O318       Cr327   2.074       .  S
O318        C326   1.285   1_545  A
O319       Cr327   1.998       .  S
O319        C320   1.266       .  A
C320        O321   1.255       .  A
C320       C1876   1.462   1_545  S
O321       Cr328   1.989       .  S
O322       Cr328   1.963       .  S
O322        C323   1.258       .  A
C323        O324   1.258       .  A
C323       C3937   1.437   1_545  S
O324       Cr329   1.981       .  S
O325       Cr329   1.955       .  S
O325        C326   1.256   1_545  A
C326       C3924   1.516       .  S
Cr327       O330   1.760       .  S
Cr328       O330   1.767       .  S
Cr329       O330   1.782       .  S
O331       Cr349   1.941       .  S
O331        C339   1.251       .  A
O332       Cr349   1.973       .  S
O332        C333   1.259       .  A
C333        O334   1.263       .  A
C333       C3894   1.448       .  S
O334       Cr350   1.972       .  S
O335       Cr350   1.984       .  S
O335        C336   1.253       .  A
C336        O337   1.266       .  A
C336       C1920   1.471       .  S
O337       Cr351   2.009       .  S
O338       Cr351   2.089       .  S
O338        C339   1.288       .  A
C339       C3884   1.527       .  S
O340       Cr349   1.979       .  S
O340        C348   1.253   1_655  A
O341       Cr349   1.968   1_455  S
O341        C342   1.254       .  A
C342        O343   1.261   1_455  A
C342       C3904   1.445       .  S
O343       Cr350   1.976       .  S
O344       Cr350   1.964   1_455  S
O344        C345   1.262       .  A
C345        O346   1.281   1_455  A
O346       Cr351   2.048       .  S
O347       Cr351   2.031   1_455  S
O347        C348   1.266       .  A
C348       C3877   1.513       .  S
Cr349       O352   1.789       .  S
Cr350       O352   1.769       .  S
Cr351       O352   1.759       .  S
O353       Cr371   1.947       .  S
O353        C361   1.254       .  A
O354       Cr371   1.977       .  S
O354        C355   1.259       .  A
C355        O356   1.260       .  A
C355       C3854   1.450       .  S
O356       Cr372   1.959       .  S
O357       Cr372   1.994       .  S
O357        C358   1.258       .  A
C358        O359   1.271       .  A
C358       C1854   1.488       .  S
O359       Cr373   2.017       .  S
O360       Cr373   2.064       .  S
O360        C361   1.283       .  A
C361       C3844   1.505       .  S
O362       Cr371   1.979       .  S
O362        C370   1.254   1_655  A
O363       Cr371   1.964   1_455  S
O363        C364   1.252       .  A
C364        O365   1.263   1_455  A
C364       C3864   1.444       .  S
O365       Cr372   1.991       .  S
O366       Cr372   1.975   1_455  S
O366        C367   1.263       .  A
C367        O368   1.271   1_455  A
O368       Cr373   2.020       .  S
O369       Cr373   2.036   1_455  S
O369        C370   1.268       .  A
C370       C3834   1.516       .  S
Cr371       O374   1.792       .  S
Cr372       O374   1.766       .  S
Cr373       O374   1.763       .  S
O375       Cr393   1.983       .  S
O375        C383   1.257   1_545  A
O376       Cr393   1.958   1_565  S
O376        C377   1.254       .  A
C377        O378   1.264   1_565  A
C377       C3814   1.435       .  S
O378       Cr394   1.983       .  S
O379       Cr394   1.961   1_565  S
O379        C380   1.259       .  A
C380        O381   1.280   1_565  A
C380       C1898   1.480       .  S
O381       Cr395   2.047       .  S
O382       Cr395   2.046   1_565  S
O382        C383   1.267       .  A
C383       C3804   1.522       .  S
O384       Cr393   1.950       .  S
O384        C392   1.254       .  A
O385       Cr393   1.976       .  S
O385        C386   1.257       .  A
C386        O387   1.257       .  A
C386       C3827   1.439       .  S
O387       Cr394   1.965       .  S
O388       Cr394   1.983       .  S
O388        C389   1.254       .  A
C389        O390   1.267       .  A
O390       Cr395   2.011       .  S
O391       Cr395   2.089       .  S
O391        C392   1.289       .  A
C392       C3797   1.526       .  S
Cr393       O396   1.787       .  S
Cr394       O396   1.767       .  S
Cr395       O396   1.759       .  S
O397       Cr415   1.972       .  S
O397        C405   1.251       .  A
O398       Cr415   1.981       .  S
O398        C399   1.259       .  A
C399        O400   1.259       .  A
C399       C3784   1.453       .  S
O400       Cr416   1.971       .  S
O401       Cr416   1.979       .  S
O401        C402   1.265       .  A
C402        O403   1.276       .  A
C402       C1700   1.474       .  S
O403       Cr417   2.022       .  S
O404       Cr417   2.052       .  S
O404        C405   1.267       .  A
C405       C3754   1.521       .  S
O406       Cr415   1.948       .  S
O406        C414   1.254       .  A
O407       Cr415   1.958       .  S
O407        C408   1.255       .  A
C408        O409   1.264       .  A
C408       C3774   1.450       .  S
O409       Cr416   1.975       .  S
O410       Cr416   1.976       .  S
O410        C411   1.251       .  A
C411        O412   1.270       .  A
C411        C587   1.489       .  S
O412       Cr417   2.030       .  S
O413       Cr417   2.076       .  S
O413        C414   1.286       .  A
C414       C3764   1.518       .  S
Cr415       O418   1.795       .  S
Cr416       O418   1.772       .  S
Cr417       O418   1.764       .  S
O419       Cr437   1.985       .  S
O419        C427   1.256       .  A
O420       Cr437   1.953       .  S
O420        C421   1.252       .  A
C421        O422   1.265       .  A
C421       C3734   1.433       .  S
O422       Cr438   1.986       .  S
O423       Cr438   1.978       .  S
O423        C424   1.261       .  A
C424        O425   1.272       .  A
C424       C1172   1.472       .  S
O425       Cr439   2.025       .  S
O426       Cr439   2.040       .  S
O426        C427   1.265       .  A
C427       C3724   1.522       .  S
O428       Cr437   1.942       .  S
O428        C436   1.255       .  A
O429       Cr437   1.985       .  S
O429        C430   1.258       .  A
C430        O431   1.261       .  A
C430       C3747   1.454       .  S
O431       Cr438   1.976       .  S
O432       Cr438   1.996       .  S
O432        C433   1.258       .  A
C433        O434   1.270       .  A
C433       C1599   1.483       .  S
O434       Cr439   2.008       .  S
O435       Cr439   2.073       .  S
O435        C436   1.285       .  A
C436       C3714   1.511       .  S
Cr437       O440   1.793       .  S
Cr438       O440   1.768       .  S
Cr439       O440   1.764       .  S
O441       Cr459   1.961       .  S
O441        C449   1.258       .  A
O442       Cr459   2.006       .  S
O442        C443   1.267       .  A
C443        O444   1.247       .  A
C443       C3897   1.431       .  S
O444       Cr460   1.934       .  S
O445       Cr460   1.988       .  S
O445        C446   1.256       .  A
C446        O447   1.266       .  A
C446       C3694   1.507       .  S
O447       Cr461   2.020       .  S
O448       Cr461   2.079       .  S
O448        C449   1.284       .  A
C449       C3677   1.519       .  S
O450       Cr459   2.019       .  S
O450        C458   1.267       .  A
O451       Cr459   1.933       .  S
O451        C452   1.252       .  A
C452        O453   1.257       .  A
C452       C3684   1.440       .  S
O453       Cr460   1.996       .  S
O454       Cr460   1.926       .  S
O454        C455   1.252       .  A
C455        O456   1.291       .  A
C455       C3704   1.504       .  S
O456       Cr461   2.092       .  S
O457       Cr461   2.022       .  S
O457        C458   1.272       .  A
C458       C3767   1.515       .  S
Cr459       O462   1.765       .  S
Cr460       O462   1.792       .  S
Cr461       O462   1.761       .  S
O463       Cr481   1.961       .  S
O463        C471   1.259       .  A
O464       Cr481   2.009       .  S
O464        C465   1.268       .  A
C465        O466   1.250       .  A
C465       C4497   1.442       .  S
O466       Cr482   1.925       .  S
O467       Cr482   1.989       .  S
O467        C468   1.256       .  A
C468        O469   1.268       .  A
C468       C3664   1.503       .  S
O469       Cr483   2.018       .  S
O470       Cr483   2.071       .  S
O470        C471   1.285       .  A
C471       C4037   1.511       .  S
O472       Cr481   2.016       .  S
O472        C480   1.266       .  A
O473       Cr481   1.935       .  S
O473        C474   1.252       .  A
C474        O475   1.255       .  A
C474       C3777   1.436       .  S
O475       Cr482   1.978       .  S
O476       Cr482   1.933       .  S
O476        C477   1.251       .  A
C477        O478   1.287       .  A
C477       C3707   1.493       .  S
O478       Cr483   2.077       .  S
O479       Cr483   2.011       .  S
O479        C480   1.267       .  A
C480       C3654   1.510       .  S
Cr481       O484   1.777       .  S
Cr482       O484   1.789       .  S
Cr483       O484   1.754       .  S
O485       Cr503   2.017       .  S
O485        C493   1.265       .  A
O486       Cr503   1.938       .  S
O486        C487   1.252       .  A
C487        O488   1.262       .  A
C487       C3637   1.454       .  S
O488       Cr504   2.000       .  S
O489       Cr504   1.915       .  S
O489        C490   1.248       .  A
C490        O491   1.290       .  A
C490       C3697   1.510       .  S
O491       Cr505   2.103       .  S
O492       Cr505   2.028       .  S
O492        C493   1.272       .  A
C493       C3887   1.520       .  S
O494       Cr503   1.950       .  S
O494        C502   1.259       .  A
O495       Cr503   2.013       .  S
O495        C496   1.268       .  A
C496        O497   1.246       .  A
C496       C3624   1.447       .  S
O497       Cr504   1.931       .  S
O498       Cr504   1.994       .  S
O498        C499   1.260       .  A
C499        O500   1.271       .  A
C499       C3644   1.514       .  S
O500       Cr505   2.043       .  S
O501       Cr505   2.087       .  S
O501        C502   1.288       .  A
C502       C4207   1.513       .  S
Cr503       O506   1.772       .  S
Cr504       O506   1.779       .  S
Cr505       O506   1.761       .  S
O507       Cr525   2.015       .  S
O507        C515   1.267       .  A
O508       Cr525   1.941       .  S
O508        C509   1.250       .  A
C509        O510   1.261       .  A
C509       C3604   1.461       .  S
O510       Cr526   1.999       .  S
O511       Cr526   1.921       .  S
O511        C512   1.250       .  A
C512        O513   1.290       .  A
C512       C3614   1.507       .  S
O513       Cr527   2.102       .  S
O514       Cr527   2.037       .  S
O514        C515   1.274       .  A
C515       C3727   1.518       .  S
O516       Cr525   1.950       .  S
O516        C524   1.257       .  A
O517       Cr525   2.018       .  S
O517        C518   1.268       .  A
C518        O519   1.245       .  A
C518       C4217   1.444       .  S
O519       Cr526   1.925       .  S
O520       Cr526   1.997       .  S
O520        C521   1.261       .  A
C521        O522   1.271       .  A
C521       C3647   1.515       .  S
O522       Cr527   2.041       .  S
O523       Cr527   2.086       .  S
O523        C524   1.286       .  A
C524       C3594   1.516       .  S
Cr525       O528   1.776       .  S
Cr526       O528   1.787       .  S
Cr527       O528   1.767       .  S
O529       Cr547   2.016       .  S
O529        C537   1.271       .  A
O530       Cr547   2.099       .  S
O530        C531   1.289       .  A
C531        O532   1.253       .  A
C531       C3584   1.505       .  S
O532       Cr548   1.930       .  S
O533       Cr548   2.014       .  S
O533        C534   1.262       .  A
C534        O535   1.252       .  A
C534       C4337   1.451       .  S
O535       Cr549   1.943       .  S
O536       Cr549   2.011       .  S
O536        C537   1.268       .  A
C537       C3917   1.507       .  S
O538       Cr547   2.089       .  S
O538        C546   1.285       .  A
O539       Cr547   2.009       .  S
O539        C540   1.266       .  A
C540        O541   1.261       .  A
C540       C3617   1.507       .  S
O541       Cr548   2.002       .  S
O542       Cr548   1.928       .  S
O542        C543   1.246       .  A
C543        O544   1.267       .  A
C543       C3737   1.435       .  S
O544       Cr549   2.009       .  S
O545       Cr549   1.955       .  S
O545        C546   1.256       .  A
C546       C3574   1.517       .  S
Cr547       O550   1.766       .  S
Cr548       O550   1.785       .  S
Cr549       O550   1.763       .  S
O551       Cr569   2.080       .  S
O551        C559   1.285       .  A
O552       Cr569   2.011       .  S
O552        C553   1.264       .  A
C553        O554   1.257       .  A
C553       C3587   1.504       .  S
O554       Cr570   1.994       .  S
O555       Cr570   1.926       .  S
O555        C556   1.248       .  A
C556        O557   1.270       .  A
C556       C3944   1.437       .  S
O557       Cr571   2.018       .  S
O558       Cr571   1.956       .  S
O558        C559   1.256       .  A
C559       C4327   1.515       .  S
O560       Cr569   2.006       .  S
O560        C568   1.269       .  A
O561       Cr569   2.101       .  S
O561        C562   1.291       .  A
C562        O563   1.252       .  A
C562       C3667   1.510       .  S
O563       Cr570   1.923       .  S
O564       Cr570   1.996       .  S
O564        C565   1.257       .  A
C565        O566   1.252       .  A
C565       C4067   1.446       .  S
O566       Cr571   1.945       .  S
O567       Cr571   2.018       .  S
O567        C568   1.267       .  A
C568       C4487   1.507       .  S
Cr569       O572   1.762       .  S
Cr570       O572   1.788       .  S
Cr571       O572   1.769       .  S
O573       Cr591   1.982       .  S
O573        C581   1.255   1_655  A
O574       Cr591   1.960   1_455  S
O574        C575   1.253       .  A
C575        O576   1.268       .  A
C575       C3564   1.447       .  S
O576       Cr592   2.002   1_455  S
O577       Cr592   1.967   1_455  S
O577        C578   1.261       .  A
C578        O579   1.269   1_455  A
C578        C644   1.463       .  S
O579       Cr593   2.011       .  S
O580       Cr593   2.023   1_455  S
O580        C581   1.264       .  A
C581       C3554   1.514       .  S
O582       Cr591   1.959       .  S
O582        C590   1.257       .  A
O583       Cr591   1.978       .  S
O583        C584   1.256       .  A
C584        O585   1.259       .  A
C584       C3687   1.448       .  S
O585       Cr592   1.967       .  S
O586       Cr592   2.006       .  S
O586        C587   1.260       .  A
C587        O588   1.272       .  A
O588       Cr593   2.008       .  S
O589       Cr593   2.063       .  S
O589        C590   1.282       .  A
C590       C3657   1.511       .  S
Cr591       O594   1.795       .  S
Cr592       O594   1.770       .  S
Cr593       O594   1.767       .  S
O595       Cr613   1.981       .  S
O595        C603   1.255   1_545  A
O596       Cr613   1.961   1_565  S
O596        C597   1.251       .  A
C597        O598   1.261   1_565  A
C597       C3534   1.435       .  S
O598       Cr614   1.975       .  S
O599       Cr614   1.954   1_565  S
O599        C600   1.259       .  A
C600        O601   1.279   1_565  A
C600        C820   1.465       .  S
O601       Cr615   2.035       .  S
O602       Cr615   2.047   1_565  S
O602        C603   1.268       .  A
C603       C3527   1.524       .  S
O604       Cr613   1.937       .  S
O604        C612   1.252       .  A
O605       Cr613   1.983       .  S
O605        C606   1.261       .  A
C606        O607   1.262       .  A
C606       C3544   1.449       .  S
O607       Cr614   1.962       .  S
O608       Cr614   1.989       .  S
O608        C609   1.253       .  A
C609        O610   1.269       .  A
C609        C631   1.483       .  S
O610       Cr615   2.027       .  S
O611       Cr615   2.081       .  S
O611        C612   1.287       .  A
C612       C3514   1.519       .  S
Cr613       O616   1.787       .  S
Cr614       O616   1.768       .  S
Cr615       O616   1.755       .  S
O617       Cr635   1.957       .  S
O617        C625   1.257       .  A
O618       Cr635   1.989       .  S
O618        C619   1.256       .  A
C619        O620   1.259       .  A
C619       C3504   1.454       .  S
O620       Cr636   1.973       .  S
O621       Cr636   2.002       .  S
O621        C622   1.260       .  A
C622        O623   1.263       .  A
C622       C1634   1.466       .  S
O623       Cr637   1.985       .  S
O624       Cr637   2.078       .  S
O624        C625   1.288       .  A
C625       C3477   1.516       .  S
O626       Cr635   1.982       .  S
O626        C634   1.256       .  A
O627       Cr635   1.947       .  S
O627        C628   1.250       .  A
C628        O629   1.272       .  A
C628       C3494   1.438       .  S
O629       Cr636   1.998       .  S
O630       Cr636   1.973       .  S
O630        C631   1.260       .  A
C631        O632   1.277       .  A
O632       Cr637   2.040       .  S
O633       Cr637   2.019       .  S
O633        C634   1.262       .  A
C634       C3484   1.512       .  S
Cr635       O638   1.795       .  S
Cr636       O638   1.769       .  S
Cr637       O638   1.761       .  S
O639       Cr657   1.952       .  S
O639        C647   1.254       .  A
O640       Cr657   1.982       .  S
O640        C641   1.259       .  A
C641        O642   1.255       .  A
C641       C3457   1.430       .  S
O642       Cr658   1.947       .  S
O643       Cr658   2.004       .  S
O643        C644   1.263       .  A
C644        O645   1.263       .  A
O645       Cr659   1.989       .  S
O646       Cr659   2.076       .  S
O646        C647   1.284       .  A
C647       C3444   1.512       .  S
O648       Cr657   1.987       .  S
O648        C656   1.260       .  A
O649       Cr657   1.962       .  S
O649        C650   1.253       .  A
C650        O651   1.262       .  A
C650       C3467   1.437       .  S
O651       Cr658   1.978       .  S
O652       Cr658   1.960       .  S
O652        C653   1.253       .  A
C653        O654   1.277       .  A
C653       C1709   1.477       .  S
O654       Cr659   2.060       .  S
O655       Cr659   2.024       .  S
O655        C656   1.267       .  A
C656       C3434   1.510       .  S
Cr657       O660   1.781       .  S
Cr658       O660   1.763       .  S
Cr659       O660   1.762       .  S
O661       Cr679   2.003       .  S
O661        C669   1.264       .  A
O662       Cr679   1.944       .  S
O662        C663   1.253       .  A
C663        O664   1.259       .  A
C663       C4187   1.444       .  S
O664       Cr680   2.003       .  S
O665       Cr680   1.919       .  S
O665        C666   1.251       .  A
C666        O667   1.290       .  A
C666       C3414   1.507       .  S
O667       Cr681   2.099       .  S
O668       Cr681   2.023       .  S
O668        C669   1.270       .  A
C669       C4317   1.501       .  S
O670       Cr679   1.950       .  S
O670        C678   1.257       .  A
O671       Cr679   2.003       .  S
O671        C672   1.266       .  A
C672        O673   1.247       .  A
C672       C3547   1.431       .  S
O673       Cr680   1.936       .  S
O674       Cr680   1.985       .  S
O674        C675   1.256       .  A
C675        O676   1.268       .  A
C675       C3427   1.497       .  S
O676       Cr681   2.019       .  S
O677       Cr681   2.088       .  S
O677        C678   1.286       .  A
C678       C3487   1.515       .  S
Cr679       O682   1.758       .  S
Cr680       O682   1.778       .  S
Cr681       O682   1.765       .  S
O683       Cr701   2.011       .  S
O683        C691   1.264       .  A
O684       Cr701   1.945       .  S
O684        C685   1.253       .  A
C685        O686   1.262       .  A
C685       C3567   1.454       .  S
O686       Cr702   2.002       .  S
O687       Cr702   1.916       .  S
O687        C688   1.246       .  A
C688        O689   1.291       .  A
C688       C3407   1.516       .  S
O689       Cr703   2.106       .  S
O690       Cr703   2.028       .  S
O690        C691   1.272       .  A
C691       C3447   1.513       .  S
O692       Cr701   1.964       .  S
O692        C700   1.261       .  A
O693       Cr701   2.011       .  S
O693        C694   1.268       .  A
C694        O695   1.246       .  A
C694       C3907   1.450       .  S
O695       Cr702   1.928       .  S
O696       Cr702   1.997       .  S
O696        C697   1.261       .  A
C697        O698   1.269       .  A
C697       C3394   1.517       .  S
O698       Cr703   2.038       .  S
O699       Cr703   2.078       .  S
O699        C700   1.287       .  A
C700       C4434   1.516       .  S
Cr701       O704   1.774       .  S
Cr702       O704   1.784       .  S
Cr703       O704   1.762       .  S
O705       Cr723   1.947       .  S
O705        C713   1.260       .  A
O706       Cr723   1.998       .  S
O706        C707   1.262       .  A
C707        O708   1.248       .  A
C707       C3454   1.454       .  S
O708       Cr724   1.934       .  S
O709       Cr724   1.985       .  S
O709        C710   1.257       .  A
C710        O711   1.272       .  A
C710       C3404   1.504       .  S
O711       Cr725   2.029       .  S
O712       Cr725   2.101       .  S
O712        C713   1.293       .  A
C713       C3557   1.520       .  S
O714       Cr723   2.000       .  S
O714        C722   1.257       .  A
O715       Cr723   1.945       .  S
O715        C716   1.255       .  A
C716        O717   1.261       .  A
C716       C3497   1.451       .  S
O717       Cr724   1.985       .  S
O718       Cr724   1.916       .  S
O718        C719   1.246       .  A
C719        O720   1.288       .  A
C719       C3424   1.511       .  S
O720       Cr725   2.095       .  S
O721       Cr725   2.036       .  S
O721        C722   1.270       .  A
C722       C3517   1.516       .  S
Cr723       O726   1.777       .  S
Cr724       O726   1.780       .  S
Cr725       O726   1.757       .  S
O727       Cr745   2.013       .  S
O727        C735   1.269       .  A
O728       Cr745   2.084       .  S
O728        C729   1.288       .  A
C729        O730   1.247       .  A
C729       C3374   1.499       .  S
O730       Cr746   1.918       .  S
O731       Cr746   1.991       .  S
O731        C732   1.257       .  A
C732        O733   1.254       .  A
C732       C3354   1.446       .  S
O733       Cr747   1.945       .  S
O734       Cr747   2.010       .  S
O734        C735   1.264       .  A
C735       C3717   1.508       .  S
O736       Cr745   2.068       .  S
O736        C744   1.283       .  A
O737       Cr745   2.023       .  S
O737        C738   1.267       .  A
C738        O739   1.256       .  A
C738       C3387   1.502       .  S
O739       Cr746   1.987       .  S
O740       Cr746   1.928       .  S
O740        C741   1.248       .  A
C741        O742   1.269       .  A
C741       C3344   1.446       .  S
O742       Cr747   2.009       .  S
O743       Cr747   1.959       .  S
O743        C744   1.261       .  A
C744       C3364   1.506       .  S
Cr745       O748   1.758       .  S
Cr746       O748   1.785       .  S
Cr747       O748   1.769       .  S
O749       Cr767   1.996       .  S
O749        C757   1.257       .  A
O750       Cr767   1.948       .  S
O750        C751   1.257       .  A
C751        O752   1.263       .  A
C751       C3334   1.454       .  S
O752       Cr768   1.992       .  S
O753       Cr768   1.924       .  S
O753        C754   1.249       .  A
C754        O755   1.288       .  A
C754       C3384   1.514       .  S
O755       Cr769   2.088       .  S
O756       Cr769   2.053       .  S
O756        C757   1.271       .  A
C757       C3324   1.521       .  S
O758       Cr767   1.962       .  S
O758        C766   1.264       .  A
O759       Cr767   1.988       .  S
O759        C760   1.258       .  A
C760        O761   1.249       .  A
C760       C4467   1.449       .  S
O761       Cr768   1.943       .  S
O762       Cr768   1.986       .  S
O762        C763   1.258       .  A
C763        O764   1.275       .  A
C763       C3397   1.520       .  S
O764       Cr769   2.054       .  S
O765       Cr769   2.089       .  S
O765        C766   1.292       .  A
C766       C3874   1.518       .  S
Cr767       O770   1.784       .  S
Cr768       O770   1.789       .  S
Cr769       O770   1.764       .  S
O771       Cr789   1.963       .  S
O771        C779   1.256       .  A
O772       Cr789   2.020       .  S
O772        C773   1.273       .  A
C773        O774   1.244       .  A
C773       C4347   1.431       .  S
O774       Cr790   1.910       .  S
O775       Cr790   1.994       .  S
O775        C776   1.258       .  A
C776        O777   1.262       .  A
C776       C3417   1.497       .  S
O777       Cr791   2.000       .  S
O778       Cr791   2.073       .  S
O778        C779   1.283       .  A
C779       C4157   1.515       .  S
O780       Cr789   2.028       .  S
O780        C788   1.271       .  A
O781       Cr789   1.942       .  S
O781        C782   1.250       .  A
C782        O783   1.254       .  A
C782       C3744   1.445       .  S
O783       Cr790   1.990       .  S
O784       Cr790   1.928       .  S
O784        C785   1.250       .  A
C785        O786   1.289       .  A
C785       C3377   1.498       .  S
O786       Cr791   2.085       .  S
O787       Cr791   1.999       .  S
O787        C788   1.268       .  A
C788       C3317   1.508       .  S
Cr789       O792   1.772       .  S
Cr790       O792   1.794       .  S
Cr791       O792   1.761       .  S
O793       Cr811   1.982       .  S
O793        C801   1.256       .  A
O794       Cr811   1.959       .  S
O794        C795   1.253       .  A
C795        O796   1.270       .  A
C795       C3337   1.444       .  S
O796       Cr812   1.989       .  S
O797       Cr812   1.969       .  S
O797        C798   1.254       .  A
C798        O799   1.275       .  A
C798       C1656   1.478       .  S
O799       Cr813   2.045       .  S
O800       Cr813   2.018       .  S
O800        C801   1.262       .  A
C801       C3367   1.505       .  S
O802       Cr811   1.950       .  S
O802        C810   1.256       .  A
O803       Cr811   1.981       .  S
O803        C804   1.255       .  A
C804        O805   1.259       .  A
C804       C3307   1.444       .  S
O805       Cr812   1.969       .  S
O806       Cr812   2.019       .  S
O806        C807   1.266       .  A
C807        O808   1.264       .  A
C807       C1379   1.479       .  S
O808       Cr813   1.981       .  S
O809       Cr813   2.073       .  S
O809        C810   1.286       .  A
C810       C3294   1.512       .  S
Cr811       O814   1.788       .  S
Cr812       O814   1.765       .  S
Cr813       O814   1.767       .  S
O815       Cr833   1.950       .  S
O815        C823   1.253       .  A
O816       Cr833   1.989       .  S
O816        C817   1.259       .  A
C817        O818   1.263       .  A
C817       C3274   1.456       .  S
O818       Cr834   1.973       .  S
O819       Cr834   1.990       .  S
O819        C820   1.256       .  A
C820        O821   1.265       .  A
O821       Cr835   1.997       .  S
O822       Cr835   2.064       .  S
O822        C823   1.284       .  A
C823       C3264   1.501       .  S
O824       Cr833   1.985       .  S
O824        C832   1.256       .  A
O825       Cr833   1.946       .  S
O825        C826   1.247       .  A
C826        O827   1.264       .  A
C826       C3284   1.426       .  S
O827       Cr834   1.984       .  S
O828       Cr834   1.979       .  S
O828        C829   1.263       .  A
C829        O830   1.274       .  A
C829       C1643   1.477   1_565  S
O830       Cr835   2.026       .  S
O831       Cr835   2.026       .  S
O831        C832   1.264       .  A
C832       C3254   1.517       .  S
Cr833       O836   1.792       .  S
Cr834       O836   1.771       .  S
Cr835       O836   1.755       .  S
O837       Cr855   2.089       .  S
O837        C845   1.290       .  A
O838       Cr855   2.025       .  S
O838        C839   1.271       .  A
C839        O840   1.259       .  A
C839       C3234   1.510       .  S
O840       Cr856   1.995       .  S
O841       Cr856   1.938       .  S
O841        C842   1.253       .  A
C842        O843   1.263       .  A
C842       C3224   1.452       .  S
O843       Cr857   1.997       .  S
O844       Cr857   1.961       .  S
O844        C845   1.262       .  A
C845       C4167   1.520       .  S
O846       Cr855   2.027       .  S
O846        C854   1.268       .  A
O847       Cr855   2.086       .  S
O847        C848   1.286       .  A
C848        O849   1.250       .  A
C848       C3244   1.508       .  S
O849       Cr856   1.929       .  S
O850       Cr856   1.982       .  S
O850        C851   1.258       .  A
C851        O852   1.255       .  A
C851       C3214   1.448       .  S
O852       Cr857   1.948       .  S
O853       Cr857   2.004       .  S
O853        C854   1.260       .  A
C854       C4007   1.514       .  S
Cr855       O858   1.758       .  S
Cr856       O858   1.786       .  S
Cr857       O858   1.781       .  S
O859       Cr877   2.024       .  S
O859        C867   1.268       .  A
O860       Cr877   2.076       .  S
O860        C861   1.287       .  A
C861        O862   1.255       .  A
C861       C3207   1.507       .  S
O862       Cr878   1.946       .  S
O863       Cr878   1.990       .  S
O863        C864   1.259       .  A
C864        O865   1.256       .  A
C864       C3194   1.442       .  S
O865       Cr879   1.945       .  S
O866       Cr879   2.000       .  S
O866        C867   1.259       .  A
C867       C3297   1.510       .  S
O868       Cr877   2.070       .  S
O868        C876   1.285       .  A
O869       Cr877   2.027       .  S
O869        C870   1.268       .  A
C870        O871   1.255       .  A
C870       C3247   1.504       .  S
O871       Cr878   1.982       .  S
O872       Cr878   1.963       .  S
O872        C873   1.256       .  A
C873        O874   1.263       .  A
C873       C4017   1.456       .  S
O874       Cr879   1.997       .  S
O875       Cr879   1.962       .  S
O875        C876   1.263       .  A
C876       C3184   1.508       .  S
Cr877       O880   1.758       .  S
Cr878       O880   1.788       .  S
Cr879       O880   1.770       .  S
O881       Cr899   1.960       .  S
O881        C889   1.254       .  A
O882       Cr899   2.016       .  S
O882        C883   1.269       .  A
C883        O884   1.245       .  A
C883       C4457   1.438       .  S
O884       Cr900   1.924       .  S
O885       Cr900   2.006       .  S
O885        C886   1.262       .  A
C886        O887   1.266       .  A
C886       C3174   1.513       .  S
O887       Cr901   2.016       .  S
O888       Cr901   2.085       .  S
O888        C889   1.282       .  A
C889       C4117   1.524       .  S
O890       Cr899   2.033       .  S
O890        C898   1.273       .  A
O891       Cr899   1.933       .  S
O891        C892   1.251       .  A
C892        O893   1.260       .  A
C892       C3304   1.449       .  S
O893       Cr900   2.005       .  S
O894       Cr900   1.944       .  S
O894        C895   1.255       .  A
C895        O896   1.291       .  A
C895       C3204   1.513       .  S
O896       Cr901   2.096       .  S
O897       Cr901   2.019       .  S
O897        C898   1.274       .  A
C898       C3164   1.520       .  S
Cr899       O902   1.767       .  S
Cr900       O902   1.797       .  S
Cr901       O902   1.768       .  S
O903       Cr921   1.956       .  S
O903        C911   1.258       .  A
O904       Cr921   2.006       .  S
O904        C905   1.267       .  A
C905        O906   1.247       .  A
C905       C3537   1.441       .  S
O906       Cr922   1.930       .  S
O907       Cr922   1.994       .  S
O907        C908   1.259       .  A
C908        O909   1.267       .  A
C908       C3154   1.510       .  S
O909       Cr923   2.019       .  S
O910       Cr923   2.085       .  S
O910        C911   1.287       .  A
C911       C3267   1.516       .  S
O912       Cr921   2.013       .  S
O912        C920   1.265       .  A
O913       Cr921   1.940       .  S
O913        C914   1.253       .  A
C914        O915   1.260       .  A
C914       C4177   1.443       .  S
O915       Cr922   1.998       .  S
O916       Cr922   1.923       .  S
O916        C917   1.251       .  A
C917        O918   1.291       .  A
C917       C3237   1.514       .  S
O918       Cr923   2.102       .  S
O919       Cr923   2.010       .  S
O919        C920   1.268       .  A
C920       C3144   1.506       .  S
Cr921       O924   1.770       .  S
Cr922       O924   1.785       .  S
Cr923       O924   1.758       .  S
O925       Cr943   2.009       .  S
O925        C933   1.266       .  A
O926       Cr943   1.936       .  S
O926        C927   1.251       .  A
C927        O928   1.256       .  A
C927       C3277   1.444       .  S
O928       Cr944   1.995       .  S
O929       Cr944   1.927       .  S
O929        C930   1.253       .  A
C930        O931   1.294       .  A
C930       C3157   1.515       .  S
O931       Cr945   2.110       .  S
O932       Cr945   2.040       .  S
O932        C933   1.275       .  A
C933       C3524   1.520       .  S
O934       Cr943   1.947       .  S
O934        C942   1.254       .  A
O935       Cr943   2.009       .  S
O935        C936   1.267       .  A
C936        O937   1.245       .  A
C936       C4374   1.435       .  S
O937       Cr944   1.928       .  S
O938       Cr944   1.986       .  S
O938        C939   1.256       .  A
C939        O940   1.271       .  A
C939       C3137   1.514       .  S
O940       Cr945   2.052       .  S
O941       Cr945   2.096       .  S
O941        C942   1.288       .  A
C942       C3837   1.522       .  S
Cr943       O946   1.767       .  S
Cr944       O946   1.788       .  S
Cr945       O946   1.765       .  S
O947       Cr965   2.009       .  S
O947        C955   1.266       .  A
O948       Cr965   1.937       .  S
O948        C949   1.251       .  A
C949        O950   1.258       .  A
C949       C4147   1.447       .  S
O950       Cr966   1.991       .  S
O951       Cr966   1.933       .  S
O951        C952   1.253       .  A
C952        O953   1.290       .  A
C952       C3177   1.507       .  S
O953       Cr967   2.102       .  S
O954       Cr967   2.039       .  S
O954        C955   1.274       .  A
C955       C4447   1.517       .  S
O956       Cr965   1.950       .  S
O956        C964   1.257       .  A
O957       Cr965   2.013       .  S
O957        C958   1.268       .  A
C958        O959   1.249       .  A
C958       C3867   1.449       .  S
O959       Cr966   1.943       .  S
O960       Cr966   1.984       .  S
O960        C961   1.257       .  A
C961        O962   1.273       .  A
C961       C3134   1.512       .  S
O962       Cr967   2.050       .  S
O963       Cr967   2.087       .  S
O963        C964   1.286       .  A
C964       C4364   1.513       .  S
Cr965       O968   1.766       .  S
Cr966       O968   1.777       .  S
Cr967       O968   1.762       .  S
O969       Cr987   1.982       .  S
O969        C977   1.257       .  A
O970       Cr987   1.950       .  S
O970        C971   1.251       .  A
C971        O972   1.267       .  A
C971       C3124   1.430       .  S
O972       Cr988   1.984       .  S
O973       Cr988   1.953       .  S
O973        C974   1.255       .  A
C974        O975   1.279       .  A
C974       C1678   1.477   1_565  S
O975       Cr989   2.051       .  S
O976       Cr989   2.026       .  S
O976        C977   1.263       .  A
C977       C3094   1.511       .  S
O978       Cr987   1.947       .  S
O978        C986   1.256       .  A
O979       Cr987   1.986       .  S
O979        C980   1.257       .  A
C980        O981   1.255       .  A
C980       C3114   1.436       .  S
O981       Cr988   1.962       .  S
O982       Cr988   1.990       .  S
O982        C983   1.258       .  A
C983        O984   1.263       .  A
C983       C1159   1.460       .  S
O984       Cr989   1.991       .  S
O985       Cr989   2.081       .  S
O985        C986   1.288       .  A
C986       C3104   1.516       .  S
Cr987       O990   1.783       .  S
Cr988       O990   1.764       .  S
Cr989       O990   1.760       .  S
O991      Cr1009   1.988       .  S
O991        C999   1.260       .  A
O992      Cr1009   1.956       .  S
O992        C993   1.250       .  A
C993        O994   1.266       .  A
C993       C3074   1.446       .  S
O994      Cr1010   1.994       .  S
O995      Cr1010   1.959       .  S
O995        C996   1.256       .  A
C996        O997   1.274       .  A
C996       C1392   1.474       .  S
O997      Cr1011   2.037       .  S
O998      Cr1011   2.034       .  S
O998        C999   1.267       .  A
C999       C3064   1.517       .  S
O1000     Cr1009   1.962       .  S
O1000      C1008   1.254       .  A
O1001     Cr1009   1.979       .  S
O1001      C1002   1.257       .  A
C1002      O1003   1.256       .  A
C1002      C3084   1.432       .  S
O1003     Cr1010   1.952       .  S
O1004     Cr1010   2.011       .  S
O1004      C1005   1.261       .  A
C1005      O1006   1.270       .  A
C1005      C1621   1.481       .  S
O1006     Cr1011   2.007       .  S
O1007     Cr1011   2.074       .  S
O1007      C1008   1.285       .  A
C1008      C3054   1.513       .  S
Cr1009     O1012   1.794       .  S
Cr1010     O1012   1.774       .  S
Cr1011     O1012   1.765       .  S
O1013     Cr1031   1.971       .  S
O1013      C1021   1.260       .  A
O1014     Cr1031   2.012       .  S
O1014      C1015   1.269       .  A
C1015      O1016   1.248       .  A
C1015      C3817   1.435       .  S
O1016     Cr1032   1.925       .  S
O1017     Cr1032   1.996       .  S
O1017      C1018   1.258       .  A
C1018      O1019   1.268       .  A
C1018      C3034   1.511       .  S
O1019     Cr1033   2.026       .  S
O1020     Cr1033   2.068       .  S
O1020      C1021   1.283       .  A
C1021      C3014   1.516       .  S
O1022     Cr1031   2.016       .  S
O1022      C1030   1.267       .  A
O1023     Cr1031   1.945       .  S
O1023      C1024   1.252       .  A
C1024      O1025   1.257       .  A
C1024      C3024   1.449       .  S
O1025     Cr1032   1.989       .  S
O1026     Cr1032   1.924       .  S
O1026      C1027   1.251       .  A
C1027      O1028   1.287       .  A
C1027      C3044   1.504       .  S
O1028     Cr1033   2.089       .  S
O1029     Cr1033   2.019       .  S
O1029      C1030   1.272       .  A
C1030      C3107   1.515       .  S
Cr1031     O1034   1.777       .  S
Cr1032     O1034   1.792       .  S
Cr1033     O1034   1.759       .  S
O1035     Cr1053   2.001       .  S
O1035      C1043   1.260       .  A
O1036     Cr1053   1.952       .  S
O1036      C1037   1.256       .  A
C1037      O1038   1.258       .  A
C1037      C4417   1.448       .  S
O1038     Cr1054   1.986       .  S
O1039     Cr1054   1.940       .  S
O1039      C1040   1.252       .  A
C1040      O1041   1.288       .  A
C1040      C3004   1.504       .  S
O1041     Cr1055   2.081       .  S
O1042     Cr1055   2.008       .  S
O1042      C1043   1.265       .  A
C1043      C4237   1.501       .  S
O1044     Cr1053   1.972       .  S
O1044      C1052   1.263       .  A
O1045     Cr1053   1.996       .  S
O1045      C1046   1.263       .  A
C1046      O1047   1.252       .  A
C1046      C3117   1.446       .  S
O1047     Cr1054   1.944       .  S
O1048     Cr1054   1.986       .  S
O1048      C1049   1.257       .  A
C1049      O1050   1.266       .  A
C1049      C3047   1.497       .  S
O1050     Cr1055   2.009       .  S
O1051     Cr1055   2.082       .  S
O1051      C1052   1.288       .  A
C1052      C2994   1.522       .  S
Cr1053     O1056   1.779       .  S
Cr1054     O1056   1.791       .  S
Cr1055     O1056   1.756       .  S
O1057     Cr1075   2.097       .  S
O1057      C1065   1.287       .  A
O1058     Cr1075   2.035       .  S
O1058      C1059   1.270       .  A
C1059      O1060   1.261       .  A
C1059      C2984   1.511       .  S
O1060     Cr1076   1.997       .  S
O1061     Cr1076   1.935       .  S
O1061      C1062   1.246       .  A
C1062      O1063   1.268       .  A
C1062      C2974   1.444       .  S
O1063     Cr1077   2.015       .  S
O1064     Cr1077   1.947       .  S
O1064      C1065   1.254       .  A
C1065      C4087   1.522       .  S
O1066     Cr1075   2.030       .  S
O1066      C1074   1.273       .  A
O1067     Cr1075   2.104       .  S
O1067      C1068   1.291       .  A
C1068      O1069   1.253       .  A
C1068      C3037   1.508       .  S
O1069     Cr1076   1.936       .  S
O1070     Cr1076   2.012       .  S
O1070      C1071   1.262       .  A
C1071      O1072   1.250       .  A
C1071      C2964   1.451       .  S
O1072     Cr1077   1.933       .  S
O1073     Cr1077   2.018       .  S
O1073      C1074   1.269       .  A
C1074      C3807   1.519       .  S
Cr1075     O1078   1.765       .  S
Cr1076     O1078   1.780       .  S
Cr1077     O1078   1.764       .  S
O1079     Cr1097   2.009       .  S
O1079      C1087   1.264       .  A
O1080     Cr1097   1.940       .  S
O1080      C1081   1.254       .  A
C1081      O1082   1.263       .  A
C1081      C2947   1.452       .  S
O1082     Cr1098   2.010       .  S
O1083     Cr1098   1.923       .  S
O1083      C1084   1.250       .  A
C1084      O1085   1.292       .  A
C1084      C2957   1.504       .  S
O1085     Cr1099   2.097       .  S
O1086     Cr1099   2.037       .  S
O1086      C1087   1.273       .  A
C1087      C3067   1.519       .  S
O1088     Cr1097   1.948       .  S
O1088      C1096   1.257       .  A
O1089     Cr1097   2.006       .  S
O1089      C1090   1.266       .  A
C1090      O1091   1.246       .  A
C1090      C4097   1.446       .  S
O1091     Cr1098   1.939       .  S
O1092     Cr1098   1.991       .  S
O1092      C1093   1.258       .  A
C1093      O1094   1.271       .  A
C1093      C2987   1.511       .  S
O1094     Cr1099   2.044       .  S
O1095     Cr1099   2.093       .  S
O1095      C1096   1.288       .  A
C1096      C2934   1.515       .  S
Cr1097     O1100   1.761       .  S
Cr1098     O1100   1.781       .  S
Cr1099     O1100   1.762       .  S
O1101     Cr1119   2.014       .  S
O1101      C1109   1.263       .  A
O1102     Cr1119   1.953       .  S
O1102      C1103   1.253       .  A
C1103      O1104   1.257       .  A
C1103      C3077   1.454       .  S
O1104     Cr1120   1.991       .  S
O1105     Cr1120   1.921       .  S
O1105      C1106   1.249       .  A
C1106      O1107   1.292       .  A
C1106      C2954   1.507       .  S
O1107     Cr1121   2.098       .  S
O1108     Cr1121   2.034       .  S
O1108      C1109   1.273       .  A
C1109      C2914   1.523       .  S
O1110     Cr1119   1.959       .  S
O1110      C1118   1.259       .  A
O1111     Cr1119   2.013       .  S
O1111      C1112   1.268       .  A
C1112      O1113   1.247       .  A
C1112      C4297   1.442       .  S
O1113     Cr1120   1.923       .  S
O1114     Cr1120   1.990       .  S
O1114      C1115   1.257       .  A
C1115      O1116   1.272       .  A
C1115      C2924   1.511       .  S
O1116     Cr1121   2.049       .  S
O1117     Cr1121   2.092       .  S
O1117      C1118   1.289       .  A
C1118      C3957   1.524       .  S
Cr1119     O1122   1.778       .  S
Cr1120     O1122   1.785       .  S
Cr1121     O1122   1.758       .  S
O1123     Cr1141   2.021       .  S
O1123      C1131   1.269       .  A
O1124     Cr1141   1.943       .  S
O1124      C1125   1.250       .  A
C1125      O1126   1.258       .  A
C1125      C4267   1.445       .  S
O1126     Cr1142   2.004       .  S
O1127     Cr1142   1.929       .  S
O1127      C1128   1.252       .  A
C1128      O1129   1.294       .  A
C1128      C3007   1.512       .  S
O1129     Cr1143   2.103       .  S
O1130     Cr1143   2.021       .  S
O1130      C1131   1.271       .  A
C1131      C4407   1.515       .  S
O1132     Cr1141   1.953       .  S
O1132      C1140   1.256       .  A
O1133     Cr1141   2.021       .  S
O1133      C1134   1.271       .  A
C1134      O1135   1.247       .  A
C1134      C3987   1.440       .  S
O1135     Cr1142   1.923       .  S
O1136     Cr1142   1.996       .  S
O1136      C1137   1.259       .  A
C1137      O1138   1.266       .  A
C1137      C2927   1.512       .  S
O1138     Cr1143   2.033       .  S
O1139     Cr1143   2.082       .  S
O1139      C1140   1.285       .  A
C1140      C4287   1.517       .  S
Cr1141     O1144   1.767       .  S
Cr1142     O1144   1.786       .  S
Cr1143     O1144   1.766       .  S
O1145     Cr1163   1.935       .  S
O1145      C1153   1.251       .  A
O1146     Cr1163   1.994       .  S
O1146      C1147   1.261       .  A
C1147      O1148   1.260       .  A
C1147      C2904   1.450       .  S
O1148     Cr1164   1.964       .  S
O1149     Cr1164   2.008       .  S
O1149      C1150   1.260       .  A
C1150      O1151   1.271       .  A
C1150      C1216   1.493       .  S
O1151     Cr1165   2.025       .  S
O1152     Cr1165   2.068       .  S
O1152      C1153   1.284       .  A
C1153      C2894   1.503       .  S
O1154     Cr1163   1.986       .  S
O1154      C1162   1.257   1_545  A
O1155     Cr1163   1.949   1_565  S
O1155      C1156   1.249       .  A
C1156      O1157   1.267   1_565  A
C1156      C3027   1.441       .  S
O1157     Cr1164   2.004       .  S
O1158     Cr1164   1.959   1_565  S
O1158      C1159   1.260       .  A
C1159      O1160   1.273   1_565  A
O1160     Cr1165   2.019       .  S
O1161     Cr1165   2.035   1_565  S
O1161      C1162   1.265       .  A
C1162      C2997   1.519       .  S
Cr1163     O1166   1.790       .  S
Cr1164     O1166   1.767       .  S
Cr1165     O1166   1.762       .  S
O1167     Cr1185   1.976       .  S
O1167      C1175   1.252       .  A
O1168     Cr1185   1.963       .  S
O1168      C1169   1.255       .  A
C1169      O1170   1.268       .  A
C1169      C3607   1.448       .  S
O1170     Cr1186   1.997       .  S
O1171     Cr1186   1.976       .  S
O1171      C1172   1.261       .  A
C1172      O1173   1.273       .  A
O1173     Cr1187   2.028       .  S
O1174     Cr1187   2.035       .  S
O1174      C1175   1.264       .  A
C1175      C3577   1.516       .  S
O1176     Cr1185   1.946   1_554  S
O1176      C1184   1.257       .  A
O1177     Cr1185   1.974       .  S
O1177      C1178   1.255   1_556  A
C1178      O1179   1.262       .  A
C1178      C2884   1.450       .  S
O1179     Cr1186   1.982   1_554  S
O1180     Cr1186   2.003   1_554  S
O1180      C1181   1.261       .  A
C1181      O1182   1.270       .  A
C1181      C1203   1.495       .  S
O1182     Cr1187   2.015   1_554  S
O1183     Cr1187   2.082   1_554  S
O1183      C1184   1.287       .  A
C1184      C2874   1.518       .  S
Cr1185     O1188   1.797       .  S
Cr1186     O1188   1.767       .  S
Cr1187     O1188   1.772       .  S
O1189     Cr1207   1.982       .  S
O1189      C1197   1.256       .  A
O1190     Cr1207   1.955       .  S
O1190      C1191   1.250       .  A
C1191      O1192   1.264       .  A
C1191      C2864   1.434       .  S
O1192     Cr1208   1.986       .  S
O1193     Cr1208   1.966       .  S
O1193      C1194   1.255       .  A
C1194      O1195   1.273       .  A
C1194      C1590   1.465       .  S
O1195     Cr1209   2.033       .  S
O1196     Cr1209   2.032       .  S
O1196      C1197   1.266       .  A
C1197      C2834   1.519       .  S
O1198     Cr1207   1.947       .  S
O1198      C1206   1.255       .  A
O1199     Cr1207   1.985       .  S
O1199      C1200   1.259       .  A
C1200      O1201   1.260       .  A
C1200      C2857   1.449       .  S
O1201     Cr1208   1.962       .  S
O1202     Cr1208   2.012       .  S
O1202      C1203   1.263       .  A
C1203      O1204   1.271       .  A
O1204     Cr1209   2.015       .  S
O1205     Cr1209   2.071       .  S
O1205      C1206   1.284       .  A
C1206      C2844   1.509       .  S
Cr1207     O1210   1.787       .  S
Cr1208     O1210   1.763       .  S
Cr1209     O1210   1.764       .  S
O1211     Cr1229   1.977       .  S
O1211      C1219   1.253       .  A
O1212     Cr1229   1.960       .  S
O1212      C1213   1.256       .  A
C1213      O1214   1.266       .  A
C1213      C2814   1.434       .  S
O1214     Cr1230   1.974       .  S
O1215     Cr1230   1.980       .  S
O1215      C1216   1.261       .  A
C1216      O1217   1.280       .  A
O1217     Cr1231   2.046       .  S
O1218     Cr1231   2.032       .  S
O1218      C1219   1.263       .  A
C1219      C2804   1.507       .  S
O1220     Cr1229   1.951       .  S
O1220      C1228   1.257       .  A
O1221     Cr1229   1.981       .  S
O1221      C1222   1.255       .  A
C1222      O1223   1.259       .  A
C1222      C2824   1.448       .  S
O1223     Cr1230   1.975       .  S
O1224     Cr1230   1.976       .  S
O1224      C1225   1.254       .  A
C1225      O1226   1.265       .  A
C1225      C1687   1.464       .  S
O1226     Cr1231   2.005       .  S
O1227     Cr1231   2.075       .  S
O1227      C1228   1.287       .  A
C1228      C2794   1.512       .  S
Cr1229     O1232   1.793       .  S
Cr1230     O1232   1.766       .  S
Cr1231     O1232   1.760       .  S
O1233     Cr1251   2.011       .  S
O1233      C1241   1.269       .  A
O1234     Cr1251   2.085       .  S
O1234      C1235   1.289       .  A
C1235      O1236   1.249       .  A
C1235      C2784   1.494       .  S
O1236     Cr1252   1.922       .  S
O1237     Cr1252   1.999       .  S
O1237      C1238   1.259       .  A
C1238      O1239   1.253       .  A
C1238      C2887   1.440       .  S
O1239     Cr1253   1.938       .  S
O1240     Cr1253   2.015       .  S
O1240      C1241   1.265       .  A
C1241      C2847   1.508       .  S
O1242     Cr1251   2.075       .  S
O1242      C1250   1.284       .  A
O1243     Cr1251   2.022       .  S
O1243      C1244   1.268       .  A
C1244      O1245   1.257       .  A
C1244      C2777   1.504       .  S
O1245     Cr1252   1.991       .  S
O1246     Cr1252   1.928       .  S
O1246      C1247   1.246       .  A
C1247      O1248   1.266       .  A
C1247      C4227   1.426       .  S
O1248     Cr1253   2.004       .  S
O1249     Cr1253   1.962       .  S
O1249      C1250   1.258       .  A
C1250      C4277   1.514       .  S
Cr1251     O1254   1.757       .  S
Cr1252     O1254   1.789       .  S
Cr1253     O1254   1.766       .  S
O1255     Cr1273   2.002       .  S
O1255      C1263   1.262       .  A
O1256     Cr1273   1.940       .  S
O1256      C1257   1.255       .  A
C1257      O1258   1.262       .  A
C1257      C2907   1.442       .  S
O1258     Cr1274   2.006       .  S
O1259     Cr1274   1.919       .  S
O1259      C1260   1.249       .  A
C1260      O1261   1.294       .  A
C1260      C2764   1.519       .  S
O1261     Cr1275   2.112       .  S
O1262     Cr1275   2.024       .  S
O1262      C1263   1.269       .  A
C1263      C2807   1.507       .  S
O1264     Cr1273   1.946       .  S
O1264      C1272   1.257       .  A
O1265     Cr1273   1.996       .  S
O1265      C1266   1.263       .  A
C1266      O1267   1.248       .  A
C1266      C3824   1.433       .  S
O1267     Cr1274   1.942       .  S
O1268     Cr1274   1.992       .  S
O1268      C1269   1.257       .  A
C1269      O1270   1.267       .  A
C1269      C2754   1.507       .  S
O1270     Cr1275   2.020       .  S
O1271     Cr1275   2.102       .  S
O1271      C1272   1.291       .  A
C1272      C4477   1.520       .  S
Cr1273     O1276   1.762       .  S
Cr1274     O1276   1.781       .  S
Cr1275     O1276   1.759       .  S
O1277     Cr1295   2.011       .  S
O1277      C1285   1.271       .  A
O1278     Cr1295   2.089       .  S
O1278      C1279   1.288       .  A
C1279      O1280   1.249       .  A
C1279      C2787   1.503       .  S
O1280     Cr1296   1.927       .  S
O1281     Cr1296   1.994       .  S
O1281      C1282   1.257       .  A
C1282      O1283   1.247       .  A
C1282      C2854   1.440       .  S
O1283     Cr1297   1.927       .  S
O1284     Cr1297   2.022       .  S
O1284      C1285   1.268       .  A
C1285      C2877   1.514       .  S
O1286     Cr1295   2.075       .  S
O1286      C1294   1.283       .  A
O1287     Cr1295   2.020       .  S
O1287      C1288   1.269       .  A
C1288      O1289   1.261       .  A
C1288      C2767   1.509       .  S
O1289     Cr1296   2.000       .  S
O1290     Cr1296   1.917       .  S
O1290      C1291   1.245       .  A
C1291      O1292   1.271       .  A
C1291      C2817   1.435       .  S
O1292     Cr1297   2.013       .  S
O1293     Cr1297   1.937       .  S
O1293      C1294   1.251       .  A
C1294      C2897   1.501       .  S
Cr1295     O1298   1.759       .  S
Cr1296     O1298   1.789       .  S
Cr1297     O1298   1.770       .  S
O1299     Cr1317   2.093       .  S
O1299      C1307   1.288       .  A
O1300     Cr1317   2.043       .  S
O1300      C1301   1.270       .  A
C1301      O1302   1.260       .  A
C1301      C2734   1.516       .  S
O1302     Cr1318   1.994       .  S
O1303     Cr1318   1.931       .  S
O1303      C1304   1.246       .  A
C1304      O1305   1.267       .  A
C1304      C2724   1.436       .  S
O1305     Cr1319   2.009       .  S
O1306     Cr1319   1.956       .  S
O1306      C1307   1.256       .  A
C1307      C3057   1.522       .  S
O1308     Cr1317   2.033       .  S
O1308      C1316   1.274       .  A
O1309     Cr1317   2.106       .  S
O1309      C1310   1.292       .  A
C1310      O1311   1.254       .  A
C1310      C2747   1.514       .  S
O1311     Cr1318   1.939       .  S
O1312     Cr1318   1.999       .  S
O1312      C1313   1.259       .  A
C1313      O1314   1.251       .  A
C1313      C2714   1.445       .  S
O1314     Cr1319   1.935       .  S
O1315     Cr1319   2.012       .  S
O1315      C1316   1.267       .  A
C1316      C3757   1.518       .  S
Cr1317     O1320   1.763       .  S
Cr1318     O1320   1.786       .  S
Cr1319     O1320   1.771       .  S
O1321     Cr1339   1.968       .  S
O1321      C1329   1.261       .  A
O1322     Cr1339   2.014       .  S
O1322      C1323   1.269       .  A
C1323      O1324   1.250       .  A
C1323      C3787   1.458       .  S
O1324     Cr1340   1.942       .  S
O1325     Cr1340   1.995       .  S
O1325      C1326   1.258       .  A
C1326      O1327   1.270       .  A
C1326      C2744   1.513       .  S
O1327     Cr1341   2.031       .  S
O1328     Cr1341   2.073       .  S
O1328      C1329   1.285       .  A
C1329      C2704   1.514       .  S
O1330     Cr1339   2.017       .  S
O1330      C1338   1.266       .  A
O1331     Cr1339   1.943       .  S
O1331      C1332   1.252       .  A
C1332      O1333   1.261       .  A
C1332      C4507   1.456       .  S
O1333     Cr1340   1.997       .  S
O1334     Cr1340   1.927       .  S
O1334      C1335   1.251       .  A
C1335      O1336   1.289       .  A
C1335      C2757   1.512       .  S
O1336     Cr1341   2.098       .  S
O1337     Cr1341   2.033       .  S
O1337      C1338   1.274       .  A
C1338      C3794   1.522       .  S
Cr1339     O1342   1.778       .  S
Cr1340     O1342   1.788       .  S
Cr1341     O1342   1.759       .  S
O1343     Cr1361   2.103       .  S
O1343      C1351   1.294       .  A
O1344     Cr1361   2.057       .  S
O1344      C1345   1.276       .  A
C1345      O1346   1.257       .  A
C1345      C2737   1.517       .  S
O1346     Cr1362   1.981       .  S
O1347     Cr1362   1.950       .  S
O1347      C1348   1.253       .  A
C1348      O1349   1.261       .  A
C1348      C3087   1.455       .  S
O1349     Cr1363   1.989       .  S
O1350     Cr1363   1.956       .  S
O1350      C1351   1.263       .  A
C1351      C2694   1.524       .  S
O1352     Cr1361   2.051       .  S
O1352      C1360   1.271       .  A
O1353     Cr1361   2.092       .  S
O1353      C1354   1.289       .  A
C1354      O1355   1.249       .  A
C1354      C2774   1.515       .  S
O1355     Cr1362   1.924       .  S
O1356     Cr1362   1.990       .  S
O1356      C1357   1.260       .  A
C1357      O1358   1.256       .  A
C1357      C4307   1.446       .  S
O1358     Cr1363   1.946       .  S
O1359     Cr1363   1.993       .  S
O1359      C1360   1.255       .  A
C1360      C4197   1.520       .  S
Cr1361     O1364   1.761       .  S
Cr1362     O1364   1.782       .  S
Cr1363     O1364   1.775       .  S
O1365     Cr1383   1.991   1_554  S
O1365      C1373   1.254       .  A
O1366     Cr1383   1.979   1_554  S
O1366      C1367   1.259       .  A
C1367      O1368   1.261       .  A
C1367      C2684   1.450       .  S
O1368     Cr1384   1.975   1_554  S
O1369     Cr1384   1.985   1_554  S
O1369      C1370   1.264       .  A
C1370      O1371   1.277       .  A
C1370      C1436   1.481       .  S
O1371     Cr1385   2.038   1_554  S
O1372     Cr1385   2.038   1_554  S
O1372      C1373   1.266       .  A
C1373      C2674   1.521       .  S
O1374     Cr1383   1.957       .  S
O1374      C1382   1.257       .  A
O1375     Cr1383   1.978       .  S
O1375      C1376   1.259       .  A
C1376      O1377   1.264       .  A
C1376      C3197   1.454       .  S
O1377     Cr1384   1.977       .  S
O1378     Cr1384   1.980       .  S
O1378      C1379   1.255       .  A
C1379      O1380   1.263       .  A
O1380     Cr1385   2.007       .  S
O1381     Cr1385   2.075       .  S
O1381      C1382   1.287       .  A
C1382      C3167   1.523       .  S
Cr1383     O1386   1.797       .  S
Cr1384     O1386   1.766       .  S
Cr1385     O1386   1.766       .  S
O1387     Cr1405   1.942       .  S
O1387      C1395   1.251       .  A
O1388     Cr1405   2.005       .  S
O1388      C1389   1.262       .  A
C1389      O1390   1.260       .  A
C1389      C2944   1.459       .  S
O1390     Cr1406   1.961       .  S
O1391     Cr1406   1.999       .  S
O1391      C1392   1.257       .  A
C1392      O1393   1.266       .  A
O1393     Cr1407   2.006       .  S
O1394     Cr1407   2.090       .  S
O1394      C1395   1.288       .  A
C1395      C2917   1.527       .  S
O1396     Cr1405   1.992       .  S
O1396      C1404   1.260   1_655  A
O1397     Cr1405   1.943   1_455  S
O1397      C1398   1.245       .  A
C1398      O1399   1.264       .  A
C1398      C2664   1.426       .  S
O1399     Cr1406   1.979   1_455  S
O1400     Cr1406   1.970   1_455  S
O1400      C1401   1.260       .  A
C1401      O1402   1.280   1_455  A
C1401      C1423   1.482       .  S
O1402     Cr1407   2.046       .  S
O1403     Cr1407   2.043   1_455  S
O1403      C1404   1.267       .  A
C1404      C2657   1.528       .  S
Cr1405     O1408   1.789       .  S
Cr1406     O1408   1.770       .  S
Cr1407     O1408   1.756       .  S
O1409     Cr1427   1.989       .  S
O1409      C1417   1.257       .  A
O1410     Cr1427   1.948       .  S
O1410      C1411   1.250       .  A
C1411      O1412   1.269       .  A
C1411      C2644   1.439       .  S
O1412     Cr1428   1.997       .  S
O1413     Cr1428   1.968       .  S
O1413      C1414   1.259       .  A
C1414      O1415   1.272       .  A
C1414      C1612   1.472       .  S
O1415     Cr1429   2.025       .  S
O1416     Cr1429   2.018       .  S
O1416      C1417   1.265       .  A
C1417      C2614   1.509       .  S
O1418     Cr1427   1.947       .  S
O1418      C1426   1.254       .  A
O1419     Cr1427   1.995       .  S
O1419      C1420   1.259       .  A
C1420      O1421   1.258       .  A
C1420      C2637   1.455       .  S
O1421     Cr1428   1.962       .  S
O1422     Cr1428   2.006       .  S
O1422      C1423   1.261       .  A
C1423      O1424   1.270       .  A
O1424     Cr1429   2.012       .  S
O1425     Cr1429   2.052       .  S
O1425      C1426   1.280       .  A
C1426      C2624   1.492       .  S
Cr1427     O1430   1.797       .  S
Cr1428     O1430   1.765       .  S
Cr1429     O1430   1.764       .  S
O1431     Cr1449   1.982       .  S
O1431      C1439   1.257       .  A
O1432     Cr1449   1.960       .  S
O1432      C1433   1.251       .  A
C1433      O1434   1.262       .  A
C1433      C2597   1.438       .  S
O1434     Cr1450   1.980       .  S
O1435     Cr1450   1.973       .  S
O1435      C1436   1.257       .  A
C1436      O1437   1.275       .  A
O1437     Cr1451   2.048       .  S
O1438     Cr1451   2.026       .  S
O1438      C1439   1.265       .  A
C1439      C2584   1.515       .  S
O1440     Cr1449   1.953       .  S
O1440      C1448   1.253       .  A
O1441     Cr1449   1.977       .  S
O1441      C1442   1.257       .  A
C1442      O1443   1.257       .  A
C1442      C2604   1.433       .  S
O1443     Cr1450   1.956       .  S
O1444     Cr1450   2.000       .  S
O1444      C1445   1.261       .  A
C1445      O1446   1.270       .  A
C1445      C1665   1.473       .  S
O1446     Cr1451   1.993       .  S
O1447     Cr1451   2.088       .  S
O1447      C1448   1.287       .  A
C1448      C2577   1.522       .  S
Cr1449     O1452   1.789       .  S
Cr1450     O1452   1.768       .  S
Cr1451     O1452   1.767       .  S
O1453     Cr1471   1.949       .  S
O1453      C1461   1.259       .  A
O1454     Cr1471   2.007       .  S
O1454      C1455   1.266       .  A
C1455      O1456   1.250       .  A
C1455      C2687   1.453       .  S
O1456     Cr1472   1.946       .  S
O1457     Cr1472   1.982       .  S
O1457      C1458   1.255       .  A
C1458      O1459   1.270       .  A
C1458      C2567   1.504       .  S
O1459     Cr1473   2.043       .  S
O1460     Cr1473   2.097       .  S
O1460      C1461   1.291       .  A
C1461      C2587   1.520       .  S
O1462     Cr1471   2.005       .  S
O1462      C1470   1.262       .  A
O1463     Cr1471   1.945       .  S
O1463      C1464   1.253       .  A
C1464      O1465   1.260       .  A
C1464      C4027   1.450       .  S
O1465     Cr1472   1.994       .  S
O1466     Cr1472   1.925       .  S
O1466      C1467   1.250       .  A
C1467      O1468   1.293       .  A
C1467      C2554   1.510       .  S
O1468     Cr1473   2.100       .  S
O1469     Cr1473   2.031       .  S
O1469      C1470   1.270       .  A
C1470      C4397   1.515       .  S
Cr1471     O1474   1.771       .  S
Cr1472     O1474   1.782       .  S
Cr1473     O1474   1.760       .  S
O1475     Cr1493   2.021       .  S
O1475      C1483   1.269       .  A
O1476     Cr1493   1.937       .  S
O1476      C1477   1.251       .  A
C1477      O1478   1.257       .  A
C1477      C4107   1.448       .  S
O1478     Cr1494   1.993       .  S
O1479     Cr1494   1.906       .  S
O1479      C1480   1.245       .  A
C1480      O1481   1.286       .  A
C1480      C2534   1.490       .  S
O1481     Cr1495   2.079       .  S
O1482     Cr1495   2.003       .  S
O1482      C1483   1.269       .  A
C1483      C4357   1.506       .  S
O1484     Cr1493   1.956       .  S
O1484      C1492   1.257       .  A
O1485     Cr1493   2.017       .  S
O1485      C1486   1.271       .  A
C1486      O1487   1.242       .  A
C1486      C2667   1.429       .  S
O1487     Cr1494   1.899       .  S
O1488     Cr1494   2.002       .  S
O1488      C1489   1.261       .  A
C1489      O1490   1.266       .  A
C1489      C2544   1.512       .  S
O1490     Cr1495   2.016       .  S
O1491     Cr1495   2.055       .  S
O1491      C1492   1.280       .  A
C1492      C2627   1.499       .  S
Cr1493     O1496   1.771       .  S
Cr1494     O1496   1.783       .  S
Cr1495     O1496   1.757       .  S
O1497     Cr1515   2.025       .  S
O1497      C1505   1.273       .  A
O1498     Cr1515   2.112       .  S
O1498      C1499   1.293       .  A
C1499      O1500   1.254       .  A
C1499      C2547   1.516       .  S
O1500     Cr1516   1.934       .  S
O1501     Cr1516   1.997       .  S
O1501      C1502   1.255       .  A
C1502      O1503   1.250       .  A
C1502      C2634   1.446       .  S
O1503     Cr1517   1.942       .  S
O1504     Cr1517   2.029       .  S
O1504      C1505   1.272       .  A
C1505      C2654   1.524       .  S
O1506     Cr1515   2.095       .  S
O1506      C1514   1.287       .  A
O1507     Cr1515   2.031       .  S
O1507      C1508   1.267       .  A
C1508      O1509   1.258       .  A
C1508      C2564   1.505       .  S
O1509     Cr1516   1.989       .  S
O1510     Cr1516   1.924       .  S
O1510      C1511   1.247       .  A
C1511      O1512   1.273       .  A
C1511      C2594   1.444       .  S
O1512     Cr1517   2.027       .  S
O1513     Cr1517   1.961       .  S
O1513      C1514   1.256       .  A
C1514      C2677   1.528       .  S
Cr1515     O1518   1.767       .  S
Cr1516     O1518   1.785       .  S
Cr1517     O1518   1.768       .  S
O1519     Cr1537   2.092       .  S
O1519      C1527   1.288       .  A
O1520     Cr1537   2.032       .  S
O1520      C1521   1.267       .  A
C1521      O1522   1.256       .  A
C1521      C2517   1.500       .  S
O1522     Cr1538   1.983       .  S
O1523     Cr1538   1.942       .  S
O1523      C1524   1.249       .  A
C1524      O1525   1.264       .  A
C1524      C2507   1.433       .  S
O1525     Cr1539   2.001       .  S
O1526     Cr1539   1.954       .  S
O1526      C1527   1.258       .  A
C1527      C3257   1.522       .  S
O1528     Cr1537   2.030       .  S
O1528      C1536   1.271       .  A
O1529     Cr1537   2.106       .  S
O1529      C1530   1.293       .  A
C1530      O1531   1.255       .  A
C1530      C2524   1.518       .  S
O1531     Cr1538   1.935       .  S
O1532     Cr1538   1.997       .  S
O1532      C1533   1.258       .  A
C1533      O1534   1.253       .  A
C1533      C2494   1.440       .  S
O1534     Cr1539   1.946       .  S
O1535     Cr1539   1.998       .  S
O1535      C1536   1.262       .  A
C1536      C3097   1.508       .  S
Cr1537     O1540   1.764       .  S
Cr1538     O1540   1.781       .  S
Cr1539     O1540   1.767       .  S
O1541     Cr1559   1.965       .  S
O1541      C1549   1.256       .  A
O1542     Cr1559   2.010       .  S
O1542      C1543   1.268       .  A
C1543      O1544   1.242       .  A
C1543      C3127   1.429       .  S
O1544     Cr1560   1.912       .  S
O1545     Cr1560   2.008       .  S
O1545      C1546   1.263       .  A
C1546      O1547   1.266       .  A
C1546      C2527   1.512       .  S
O1547     Cr1561   2.011       .  S
O1548     Cr1561   2.083       .  S
O1548      C1549   1.284       .  A
C1549      C2484   1.521       .  S
O1550     Cr1559   2.015       .  S
O1550      C1558   1.269       .  A
O1551     Cr1559   1.949       .  S
O1551      C1552   1.252       .  A
C1552      O1553   1.261       .  A
C1552      C4427   1.450       .  S
O1553     Cr1560   2.003       .  S
O1554     Cr1560   1.931       .  S
O1554      C1555   1.249       .  A
C1555      O1556   1.291       .  A
C1555      C2557   1.511       .  S
O1556     Cr1561   2.100       .  S
O1557     Cr1561   2.017       .  S
O1557      C1558   1.272       .  A
C1558      C3997   1.508       .  S
Cr1559     O1562   1.770       .  S
Cr1560     O1562   1.790       .  S
Cr1561     O1562   1.766       .  S
O1563     Cr1581   2.014       .  S
O1563      C1571   1.266       .  A
O1564     Cr1581   1.945       .  S
O1564      C1565   1.253       .  A
C1565      O1566   1.257       .  A
C1565      C4384   1.443       .  S
O1566     Cr1582   1.997       .  S
O1567     Cr1582   1.912       .  S
O1567      C1568   1.248       .  A
C1568      O1569   1.287       .  A
C1568      C2537   1.479       .  S
O1569     Cr1583   2.076       .  S
O1570     Cr1583   2.016       .  S
O1570      C1571   1.271       .  A
C1571      C4077   1.510       .  S
O1572     Cr1581   1.972       .  S
O1572      C1580   1.261       .  A
O1573     Cr1581   2.010       .  S
O1573      C1574   1.269       .  A
C1574      O1575   1.244       .  A
C1574      C3287   1.429       .  S
O1575     Cr1582   1.912       .  S
O1576     Cr1582   1.988       .  S
O1576      C1577   1.257       .  A
C1577      O1578   1.267       .  A
C1577      C2514   1.500       .  S
O1578     Cr1583   2.029       .  S
O1579     Cr1583   2.062       .  S
O1579      C1580   1.282       .  A
C1580      C2474   1.512       .  S
Cr1581     O1584   1.767       .  S
Cr1582     O1584   1.788       .  S
Cr1583     O1584   1.759       .  S
O1585     Cr1603   1.986   1_554  S
O1585      C1593   1.255       .  A
O1586     Cr1603   1.968   1_554  S
O1586      C1587   1.254       .  A
C1587      O1588   1.262       .  A
C1587      C2464   1.445       .  S
O1588     Cr1604   1.984   1_554  S
O1589     Cr1604   1.984   1_554  S
O1589      C1590   1.266       .  A
C1590      O1591   1.270       .  A
O1591     Cr1605   2.013   1_554  S
O1592     Cr1605   2.043   1_554  S
O1592      C1593   1.268       .  A
C1593      C2457   1.524       .  S
O1594     Cr1603   1.943       .  S
O1594      C1602   1.253       .  A
O1595     Cr1603   1.983       .  S
O1595      C1596   1.260       .  A
C1596      O1597   1.263       .  A
C1596      C3357   1.456       .  S
O1597     Cr1604   1.972       .  S
O1598     Cr1604   1.988       .  S
O1598      C1599   1.255       .  A
C1599      O1600   1.269       .  A
O1600     Cr1605   2.014       .  S
O1601     Cr1605   2.060       .  S
O1601      C1602   1.282       .  A
C1602      C3314   1.512       .  S
Cr1603     O1606   1.794       .  S
Cr1604     O1606   1.766       .  S
Cr1605     O1606   1.764       .  S
O1607     Cr1625   1.954   1_455  S
O1607      C1615   1.255       .  A
O1608     Cr1625   1.980       .  S
O1608      C1609   1.257       .  A
C1609      O1610   1.256       .  A
C1609      C2444   1.435   1_655  S
O1610     Cr1626   1.960       .  S
O1611     Cr1626   1.996       .  S
O1611      C1612   1.258   1_655  A
C1612      O1613   1.266       .  A
O1613     Cr1627   2.005   1_455  S
O1614     Cr1627   2.085       .  S
O1614      C1615   1.289   1_655  A
C1615      C2434   1.520       .  S
O1616     Cr1625   1.984       .  S
O1616      C1624   1.257       .  A
O1617     Cr1625   1.952       .  S
O1617      C1618   1.251       .  A
C1618      O1619   1.266       .  A
C1618      C2727   1.435       .  S
O1619     Cr1626   1.993       .  S
O1620     Cr1626   1.957       .  S
O1620      C1621   1.256       .  A
C1621      O1622   1.281       .  A
O1622     Cr1627   2.055       .  S
O1623     Cr1627   2.034       .  S
O1623      C1624   1.266       .  A
C1624      C2697   1.519       .  S
Cr1625     O1628   1.786       .  S
Cr1626     O1628   1.768       .  S
Cr1627     O1628   1.757       .  S
O1629     Cr1647   1.986       .  S
O1629      C1637   1.258       .  A
O1630     Cr1647   1.957       .  S
O1630      C1631   1.252       .  A
C1631      O1632   1.261       .  A
C1631      C2427   1.431       .  S
O1632     Cr1648   1.979       .  S
O1633     Cr1648   1.952       .  S
O1633      C1634   1.257       .  A
C1634      O1635   1.278       .  A
O1635     Cr1649   2.038       .  S
O1636     Cr1649   2.033       .  S
O1636      C1637   1.265       .  A
C1637      C2414   1.519       .  S
O1638     Cr1647   1.944       .  S
O1638      C1646   1.253   1_545  A
O1639     Cr1647   1.986       .  S
O1639      C1640   1.262       .  A
C1640      O1641   1.260       .  A
C1640      C2504   1.452   1_545  S
O1641     Cr1648   1.959       .  S
O1642     Cr1648   1.992       .  S
O1642      C1643   1.255       .  A
C1643      O1644   1.265       .  A
O1644     Cr1649   2.015       .  S
O1645     Cr1649   2.067       .  S
O1645      C1646   1.285   1_545  A
C1646      C2477   1.509       .  S
Cr1647     O1650   1.787       .  S
Cr1648     O1650   1.765       .  S
Cr1649     O1650   1.758       .  S
O1651     Cr1669   1.992       .  S
O1651      C1659   1.258       .  A
O1652     Cr1669   1.960       .  S
O1652      C1653   1.251       .  A
C1653      O1654   1.257       .  A
C1653      C3347   1.440       .  S
O1654     Cr1670   1.969       .  S
O1655     Cr1670   1.983       .  S
O1655      C1656   1.266       .  A
C1656      O1657   1.277       .  A
O1657     Cr1671   2.037       .  S
O1658     Cr1671   2.042       .  S
O1658      C1659   1.268       .  A
C1659      C3327   1.526       .  S
O1660     Cr1669   1.947   1_554  S
O1660      C1668   1.251       .  A
O1661     Cr1669   1.993   1_554  S
O1661      C1662   1.264       .  A
C1662      O1663   1.262       .  A
C1662      C2407   1.458       .  S
O1663     Cr1670   1.966   1_554  S
O1664     Cr1670   1.970   1_554  S
O1664      C1665   1.250       .  A
C1665      O1666   1.266       .  A
O1666     Cr1671   2.009   1_554  S
O1667     Cr1671   2.071   1_554  S
O1667      C1668   1.286       .  A
C1668      C2394   1.513       .  S
Cr1669     O1672   1.799       .  S
Cr1670     O1672   1.768       .  S
Cr1671     O1672   1.764       .  S
O1673     Cr1691   1.962       .  S
O1673      C1681   1.255   1_545  A
O1674     Cr1691   1.989       .  S
O1674      C1675   1.259       .  A
C1675      O1676   1.259       .  A
C1675      C2497   1.445   1_545  S
O1676     Cr1692   1.959       .  S
O1677     Cr1692   2.005       .  S
O1677      C1678   1.257       .  A
C1678      O1679   1.267       .  A
O1679     Cr1693   2.003       .  S
O1680     Cr1693   2.064       .  S
O1680      C1681   1.283   1_545  A
C1681      C2487   1.513       .  S
O1682     Cr1691   1.991       .  S
O1682      C1690   1.259       .  A
O1683     Cr1691   1.962       .  S
O1683      C1684   1.253       .  A
C1684      O1685   1.267       .  A
C1684      C2387   1.445       .  S
O1685     Cr1692   1.994       .  S
O1686     Cr1692   1.965       .  S
O1686      C1687   1.260       .  A
C1687      O1688   1.273       .  A
O1688     Cr1693   2.021       .  S
O1689     Cr1693   2.026       .  S
O1689      C1690   1.264       .  A
C1690      C2377   1.517       .  S
Cr1691     O1694   1.796       .  S
Cr1692     O1694   1.770       .  S
Cr1693     O1694   1.761       .  S
O1695     Cr1713   1.945       .  S
O1695      C1703   1.253       .  A
O1696     Cr1713   1.996       .  S
O1696      C1697   1.262       .  A
C1697      O1698   1.261       .  A
C1697      C2717   1.455       .  S
O1698     Cr1714   1.960       .  S
O1699     Cr1714   2.004       .  S
O1699      C1700   1.260       .  A
C1700      O1701   1.262       .  A
O1701     Cr1715   1.998       .  S
O1702     Cr1715   2.072       .  S
O1702      C1703   1.286       .  A
C1703      C2707   1.512       .  S
O1704     Cr1713   1.992       .  S
O1704      C1712   1.259   1_655  A
O1705     Cr1713   1.957   1_455  S
O1705      C1706   1.252       .  A
C1706      O1707   1.265   1_455  A
C1706      C2364   1.438       .  S
O1707     Cr1714   1.992       .  S
O1708     Cr1714   1.970   1_455  S
O1708      C1709   1.260       .  A
C1709      O1710   1.278   1_455  A
O1710     Cr1715   2.051       .  S
O1711     Cr1715   2.026   1_455  S
O1711      C1712   1.266       .  A
C1712      C2354   1.516       .  S
Cr1713     O1716   1.791       .  S
Cr1714     O1716   1.761       .  S
Cr1715     O1716   1.761       .  S
O1717     Cr1735   1.950       .  S
O1717      C1725   1.257       .  A
O1718     Cr1735   2.010       .  S
O1718      C1719   1.267       .  A
C1719      O1720   1.248       .  A
C1719      C2467   1.447       .  S
O1720     Cr1736   1.940       .  S
O1721     Cr1736   1.989       .  S
O1721      C1722   1.258       .  A
C1722      O1723   1.271       .  A
C1722      C2334   1.507       .  S
O1723     Cr1737   2.041       .  S
O1724     Cr1737   2.104       .  S
O1724      C1725   1.291       .  A
C1725      C2837   1.524       .  S
O1726     Cr1735   2.012       .  S
O1726      C1734   1.264       .  A
O1727     Cr1735   1.940       .  S
O1727      C1728   1.252       .  A
C1728      O1729   1.260       .  A
C1728      C2404   1.447       .  S
O1729     Cr1736   1.997       .  S
O1730     Cr1736   1.930       .  S
O1730      C1731   1.251       .  A
C1731      O1732   1.293       .  A
C1731      C2347   1.517       .  S
O1732     Cr1737   2.110       .  S
O1733     Cr1737   2.032       .  S
O1733      C1734   1.273       .  A
C1734      C2574   1.518       .  S
Cr1735     O1738   1.768       .  S
Cr1736     O1738   1.778       .  S
Cr1737     O1738   1.760       .  S
O1739     Cr1757   1.972       .  S
O1739      C1747   1.261       .  A
O1740     Cr1757   2.011       .  S
O1740      C1741   1.268       .  A
C1741      O1742   1.247       .  A
C1741      C2424   1.434       .  S
O1742     Cr1758   1.925       .  S
O1743     Cr1758   1.996       .  S
O1743      C1744   1.257       .  A
C1744      O1745   1.265       .  A
C1744      C2324   1.504       .  S
O1745     Cr1759   2.011       .  S
O1746     Cr1759   2.075       .  S
O1746      C1747   1.285       .  A
C1747      C3474   1.518       .  S
O1748     Cr1757   2.012       .  S
O1748      C1756   1.265       .  A
O1749     Cr1757   1.952       .  S
O1749      C1750   1.253       .  A
C1750      O1751   1.258       .  A
C1750      C2384   1.454       .  S
O1751     Cr1758   1.990       .  S
O1752     Cr1758   1.929       .  S
O1752      C1753   1.251       .  A
C1753      O1754   1.290       .  A
C1753      C2314   1.504       .  S
O1754     Cr1759   2.091       .  S
O1755     Cr1759   2.012       .  S
O1755      C1756   1.269       .  A
C1756      C2797   1.509       .  S
Cr1757     O1760   1.781       .  S
Cr1758     O1760   1.796       .  S
Cr1759     O1760   1.757       .  S
O1761     Cr1779   2.035       .  S
O1761      C1769   1.270       .  A
O1762     Cr1779   2.101       .  S
O1762      C1763   1.291       .  A
C1763      O1764   1.251       .  A
C1763      C2304   1.513       .  S
O1764     Cr1780   1.925       .  S
O1765     Cr1780   1.995       .  S
O1765      C1766   1.261       .  A
C1766      O1767   1.256       .  A
C1766      C2367   1.445       .  S
O1767     Cr1781   1.946       .  S
O1768     Cr1781   1.992       .  S
O1768      C1769   1.258       .  A
C1769      C3437   1.505       .  S
O1770     Cr1779   2.095       .  S
O1770      C1778   1.290       .  A
O1771     Cr1779   2.030       .  S
O1771      C1772   1.270       .  A
C1772      O1773   1.255       .  A
C1772      C2294   1.505       .  S
O1773     Cr1780   1.983       .  S
O1774     Cr1780   1.952       .  S
O1774      C1775   1.251       .  A
C1775      O1776   1.262       .  A
C1775      C2447   1.439       .  S
O1776     Cr1781   1.991       .  S
O1777     Cr1781   1.948       .  S
O1777      C1778   1.260       .  A
C1778      C2617   1.515       .  S
Cr1779     O1782   1.760       .  S
Cr1780     O1782   1.780       .  S
Cr1781     O1782   1.765       .  S
O1783     Cr1801   2.019       .  S
O1783      C1791   1.270       .  A
O1784     Cr1801   1.940       .  S
O1784      C1785   1.251       .  A
C1785      O1786   1.259       .  A
C1785      C3507   1.447       .  S
O1786     Cr1802   2.004       .  S
O1787     Cr1802   1.927       .  S
O1787      C1788   1.254       .  A
C1788      O1789   1.290       .  A
C1788      C2327   1.505       .  S
O1789     Cr1803   2.099       .  S
O1790     Cr1803   2.024       .  S
O1790      C1791   1.272       .  A
C1791      C2417   1.516       .  S
O1792     Cr1801   1.958       .  S
O1792      C1800   1.256       .  A
O1793     Cr1801   2.021       .  S
O1793      C1794   1.270       .  A
C1794      O1795   1.247       .  A
C1794      C3464   1.441       .  S
O1795     Cr1802   1.924       .  S
O1796     Cr1802   1.994       .  S
O1796      C1797   1.258       .  A
C1797      O1798   1.267       .  A
C1797      C2307   1.509       .  S
O1798     Cr1803   2.023       .  S
O1799     Cr1803   2.081       .  S
O1799      C1800   1.284       .  A
C1800      C2357   1.520       .  S
Cr1801     O1804   1.766       .  S
Cr1802     O1804   1.788       .  S
Cr1803     O1804   1.766       .  S
O1805     Cr1823   1.995       .  S
O1805      C1813   1.256       .  A
O1806     Cr1823   1.942       .  S
O1806      C1807   1.256       .  A
C1807      O1808   1.262       .  A
C1807      C2647   1.450       .  S
O1808     Cr1824   1.990       .  S
O1809     Cr1824   1.929       .  S
O1809      C1810   1.250       .  A
C1810      O1811   1.288       .  A
C1810      C2297   1.515       .  S
O1811     Cr1825   2.090       .  S
O1812     Cr1825   2.048       .  S
O1812      C1813   1.271       .  A
C1813      C2437   1.517       .  S
O1814     Cr1823   1.966       .  S
O1814      C1822   1.264       .  A
O1815     Cr1823   1.987       .  S
O1815      C1816   1.259       .  A
C1816      O1817   1.251       .  A
C1816      C2607   1.457       .  S
O1817     Cr1824   1.954       .  S
O1818     Cr1824   1.980       .  S
O1818      C1819   1.256       .  A
C1819      O1820   1.275       .  A
C1819      C2344   1.511       .  S
O1820     Cr1825   2.045       .  S
O1821     Cr1825   2.094       .  S
O1821      C1822   1.293       .  A
C1822      C2397   1.522       .  S
Cr1823     O1826   1.779       .  S
Cr1824     O1826   1.787       .  S
Cr1825     O1826   1.760       .  S
O1827     Cr1845   1.956       .  S
O1827      C1835   1.256       .  A
O1828     Cr1845   2.016       .  S
O1828      C1829   1.270       .  A
C1829      O1830   1.247       .  A
C1829      C2867   1.435       .  S
O1830     Cr1846   1.923       .  S
O1831     Cr1846   1.989       .  S
O1831      C1832   1.256       .  A
C1832      O1833   1.267       .  A
C1832      C2337   1.507       .  S
O1833     Cr1847   2.037       .  S
O1834     Cr1847   2.096       .  S
O1834      C1835   1.289       .  A
C1835      C2454   1.528       .  S
O1836     Cr1845   2.011       .  S
O1836      C1844   1.267       .  A
O1837     Cr1845   1.947       .  S
O1837      C1838   1.251       .  A
C1838      O1839   1.255       .  A
C1838      C2827   1.441       .  S
O1839     Cr1846   1.994       .  S
O1840     Cr1846   1.927       .  S
O1840      C1841   1.251       .  A
C1841      O1842   1.295       .  A
C1841      C2317   1.511       .  S
O1842     Cr1847   2.108       .  S
O1843     Cr1847   2.027       .  S
O1843      C1844   1.271       .  A
C1844      C2374   1.513       .  S
Cr1845     O1848   1.766       .  S
Cr1846     O1848   1.787       .  S
Cr1847     O1848   1.764       .  S
O1849     Cr1867   1.949       .  S
O1849      C1857   1.254       .  A
O1850     Cr1867   1.976       .  S
O1850      C1851   1.258       .  A
C1851      O1852   1.258       .  A
C1851      C2284   1.437       .  S
O1852     Cr1868   1.963       .  S
O1853     Cr1868   2.003       .  S
O1853      C1854   1.260       .  A
C1854      O1855   1.270       .  A
O1855     Cr1869   2.009       .  S
O1856     Cr1869   2.088       .  S
O1856      C1857   1.291       .  A
C1857      C2274   1.514       .  S
O1858     Cr1867   1.975       .  S
O1858      C1866   1.252       .  A
O1859     Cr1867   1.963       .  S
O1859      C1860   1.252       .  A
C1860      O1861   1.265       .  A
C1860      C2977   1.441       .  S
O1861     Cr1868   1.992       .  S
O1862     Cr1868   1.968       .  S
O1862      C1863   1.257       .  A
C1863      O1864   1.279       .  A
O1864     Cr1869   2.052       .  S
O1865     Cr1869   2.033       .  S
O1865      C1866   1.265       .  A
C1866      C2937   1.512       .  S
Cr1867     O1870   1.793       .  S
Cr1868     O1870   1.766       .  S
Cr1869     O1870   1.760       .  S
O1871     Cr1889   1.985       .  S
O1871      C1879   1.259       .  A
O1872     Cr1889   1.964       .  S
O1872      C1873   1.254       .  A
C1873      O1874   1.268       .  A
C1873      C2264   1.448       .  S
O1874     Cr1890   1.992       .  S
O1875     Cr1890   1.946       .  S
O1875      C1876   1.252       .  A
C1876      O1877   1.274       .  A
O1877     Cr1891   2.033       .  S
O1878     Cr1891   2.012       .  S
O1878      C1879   1.262       .  A
C1879      C2254   1.509       .  S
O1880     Cr1889   1.955       .  S
O1880      C1888   1.256       .  A
O1881     Cr1889   1.984       .  S
O1881      C1882   1.258       .  A
C1882      O1883   1.255       .  A
C1882      C3227   1.431       .  S
O1883     Cr1890   1.946       .  S
O1884     Cr1890   2.012       .  S
O1884      C1885   1.262       .  A
C1885      O1886   1.267       .  A
O1886     Cr1891   2.000       .  S
O1887     Cr1891   2.065       .  S
O1887      C1888   1.282       .  A
C1888      C3147   1.509       .  S
Cr1889     O1892   1.791       .  S
Cr1890     O1892   1.764       .  S
Cr1891     O1892   1.765       .  S
O1893     Cr1911   1.961       .  S
O1893      C1901   1.255       .  A
O1894     Cr1911   2.000       .  S
O1894      C1895   1.263       .  A
C1895      O1896   1.260       .  A
C1895      C2967   1.458       .  S
O1896     Cr1912   1.961       .  S
O1897     Cr1912   2.010       .  S
O1897      C1898   1.261       .  A
C1898      O1899   1.269       .  A
O1899     Cr1913   2.008       .  S
O1900     Cr1913   2.068       .  S
O1900      C1901   1.283       .  A
C1901      C3017   1.513       .  S
O1902     Cr1911   1.992       .  S
O1902      C1910   1.263       .  A
O1903     Cr1911   1.951       .  S
O1903      C1904   1.247       .  A
C1904      O1905   1.264       .  A
C1904      C2244   1.439       .  S
O1905     Cr1912   1.985       .  S
O1906     Cr1912   1.973       .  S
O1906      C1907   1.258       .  A
C1907      O1908   1.274       .  A
O1908     Cr1913   2.041       .  S
O1909     Cr1913   2.033       .  S
O1909      C1910   1.268       .  A
C1910      C2234   1.522       .  S
Cr1911     O1914   1.790       .  S
Cr1912     O1914   1.763       .  S
Cr1913     O1914   1.763       .  S
O1915     Cr1933   1.982       .  S
O1915      C1923   1.255       .  A
O1916     Cr1933   1.955       .  S
O1916      C1917   1.253       .  A
C1917      O1918   1.270       .  A
C1917      C3634   1.442       .  S
O1918     Cr1934   2.002       .  S
O1919     Cr1934   1.962       .  S
O1919      C1920   1.257       .  A
C1920      O1921   1.277       .  A
O1921     Cr1935   2.030       .  S
O1922     Cr1935   2.027       .  S
O1922      C1923   1.263       .  A
C1923      C3674   1.515       .  S
O1924     Cr1933   1.950       .  S
O1924      C1932   1.255       .  A
O1925     Cr1933   1.981       .  S
O1925      C1926   1.256       .  A
C1926      O1927   1.255       .  A
C1926      C2224   1.436       .  S
O1927     Cr1934   1.958       .  S
O1928     Cr1934   2.003       .  S
O1928      C1929   1.261       .  A
C1929      O1930   1.267       .  A
O1930     Cr1935   2.010       .  S
O1931     Cr1935   2.073       .  S
O1931      C1932   1.287       .  A
C1932      C2214   1.512       .  S
Cr1933     O1936   1.795       .  S
Cr1934     O1936   1.767       .  S
Cr1935     O1936   1.762       .  S
O1937     Cr1955   1.984       .  S
O1937      C1945   1.258       .  A
O1938     Cr1955   1.949       .  S
O1938      C1939   1.249       .  A
C1939      O1940   1.271       .  A
C1939      C3217   1.440       .  S
O1940     Cr1956   1.995       .  S
O1941     Cr1956   1.951       .  S
O1941      C1942   1.255       .  A
C1942      O1943   1.279       .  A
O1943     Cr1957   2.052       .  S
O1944     Cr1957   2.018       .  S
O1944      C1945   1.263       .  A
C1945      C3187   1.506       .  S
O1946     Cr1955   1.941       .  S
O1946      C1954   1.254       .  A
O1947     Cr1955   2.000       .  S
O1947      C1948   1.260       .  A
C1948      O1949   1.254       .  A
C1948      C2204   1.446       .  S
O1949     Cr1956   1.958       .  S
O1950     Cr1956   1.998       .  S
O1950      C1951   1.260       .  A
C1951      O1952   1.263       .  A
O1952     Cr1957   1.990       .  S
O1953     Cr1957   2.077       .  S
O1953      C1954   1.286       .  A
C1954      C2194   1.511       .  S
Cr1955     O1958   1.783       .  S
Cr1956     O1958   1.760       .  S
Cr1957     O1958   1.761       .  S
O1959     Cr1977   1.948       .  S
O1959      C1967   1.253       .  A
O1960     Cr1977   1.983       .  S
O1960      C1961   1.260       .  A
C1961      O1962   1.264       .  A
C1961      C2184   1.453       .  S
O1962     Cr1978   1.967       .  S
O1963     Cr1978   1.987       .  S
O1963      C1964   1.256       .  A
C1964      O1965   1.266       .  A
O1965     Cr1979   2.003       .  S
O1966     Cr1979   2.062       .  S
O1966      C1967   1.283       .  A
C1967      C2174   1.505       .  S
O1968     Cr1977   1.984       .  S
O1968      C1976   1.255       .  A
O1969     Cr1977   1.968       .  S
O1969      C1970   1.254       .  A
C1970      O1971   1.260       .  A
C1970      C3627   1.443       .  S
O1971     Cr1978   1.974       .  S
O1972     Cr1978   1.981       .  S
O1972      C1973   1.264       .  A
C1973      O1974   1.274       .  A
O1974     Cr1979   2.029       .  S
O1975     Cr1979   2.023       .  S
O1975      C1976   1.265       .  A
C1976      C3597   1.512       .  S
Cr1977     O1980   1.796       .  S
Cr1978     O1980   1.764       .  S
Cr1979     O1980   1.763       .  S
O1981     Cr1999   2.039       .  S
O1981      C1989   1.273       .  A
O1982     Cr1999   2.081       .  S
O1982      C1983   1.287       .  A
C1983      O1984   1.252       .  A
C1983      C2164   1.499       .  S
O1984     Cr2000   1.932       .  S
O1985     Cr2000   1.985       .  S
O1985      C1986   1.256       .  A
C1986      O1987   1.254       .  A
C1986      C2247   1.447       .  S
O1987     Cr2001   1.946       .  S
O1988     Cr2001   1.998       .  S
O1988      C1989   1.262       .  A
C1989      C4047   1.510       .  S
O1990     Cr1999   2.066       .  S
O1990      C1998   1.284       .  A
O1991     Cr1999   2.045       .  S
O1991      C1992   1.271       .  A
C1992      O1993   1.255       .  A
C1992      C2154   1.505       .  S
O1993     Cr2000   1.982       .  S
O1994     Cr2000   1.942       .  S
O1994      C1995   1.251       .  A
C1995      O1996   1.264       .  A
C1995      C2287   1.434       .  S
O1996     Cr2001   1.996       .  S
O1997     Cr2001   1.966       .  S
O1997      C1998   1.261       .  A
C1998      C3847   1.508       .  S
Cr1999     O2002   1.759       .  S
Cr2000     O2002   1.782       .  S
Cr2001     O2002   1.777       .  S
O2003     Cr2021   2.101       .  S
O2003      C2011   1.293       .  A
O2004     Cr2021   2.025       .  S
O2004      C2005   1.269       .  A
C2005      O2006   1.257       .  A
C2005      C2144   1.504       .  S
O2006     Cr2022   1.987       .  S
O2007     Cr2022   1.941       .  S
O2007      C2008   1.250       .  A
C2008      O2009   1.264       .  A
C2008      C2207   1.449       .  S
O2009     Cr2023   2.011       .  S
O2010     Cr2023   1.957       .  S
O2010      C2011   1.261       .  A
C2011      C4247   1.524       .  S
O2012     Cr2021   2.021       .  S
O2012      C2020   1.267       .  A
O2013     Cr2021   2.106       .  S
O2013      C2014   1.291       .  A
C2014      O2015   1.249       .  A
C2014      C2134   1.523       .  S
O2015     Cr2022   1.925       .  S
O2016     Cr2022   1.993       .  S
O2016      C2017   1.262       .  A
C2017      O2018   1.254       .  A
C2017      C2267   1.458       .  S
O2018     Cr2023   1.946       .  S
O2019     Cr2023   2.009       .  S
O2019      C2020   1.261       .  A
C2020      C3927   1.513       .  S
Cr2021     O2024   1.761       .  S
Cr2022     O2024   1.785       .  S
Cr2023     O2024   1.784       .  S
O2025     Cr2043   2.007       .  S
O2025      C2033   1.263       .  A
O2026     Cr2043   1.937       .  S
O2026      C2027   1.253       .  A
C2027      O2028   1.258       .  A
C2027      C2187   1.441       .  S
O2028     Cr2044   1.990       .  S
O2029     Cr2044   1.928       .  S
O2029      C2030   1.251       .  A
C2030      O2031   1.287       .  A
C2030      C2124   1.508       .  S
O2031     Cr2045   2.088       .  S
O2032     Cr2045   2.029       .  S
O2032      C2033   1.273       .  A
C2033      C3967   1.514       .  S
O2034     Cr2043   1.964       .  S
O2034      C2042   1.261       .  A
O2035     Cr2043   2.003       .  S
O2035      C2036   1.265       .  A
C2036      O2037   1.250       .  A
C2036      C2227   1.440       .  S
O2037     Cr2044   1.939       .  S
O2038     Cr2044   1.986       .  S
O2038      C2039   1.256       .  A
C2039      O2040   1.269       .  A
C2039      C2114   1.507       .  S
O2040     Cr2045   2.028       .  S
O2041     Cr2045   2.066       .  S
O2041      C2042   1.284       .  A
C2042      C4127   1.507       .  S
Cr2043     O2046   1.770       .  S
Cr2044     O2046   1.784       .  S
Cr2045     O2046   1.758       .  S
O2047     Cr2065   1.962       .  S
O2047      C2055   1.262       .  A
O2048     Cr2065   1.996       .  S
O2048      C2049   1.264       .  A
C2049      O2050   1.249       .  A
C2049      C3977   1.448       .  S
O2050     Cr2066   1.933       .  S
O2051     Cr2066   1.991       .  S
O2051      C2052   1.259       .  A
C2052      O2053   1.269       .  A
C2052      C2127   1.501       .  S
O2053     Cr2067   2.016       .  S
O2054     Cr2067   2.083       .  S
O2054      C2055   1.289       .  A
C2055      C2177   1.515       .  S
O2056     Cr2065   2.002       .  S
O2056      C2064   1.259       .  A
O2057     Cr2065   1.948       .  S
O2057      C2058   1.255       .  A
C2058      O2059   1.259       .  A
C2058      C4257   1.447       .  S
O2059     Cr2066   1.986       .  S
O2060     Cr2066   1.929       .  S
O2060      C2061   1.250       .  A
C2061      O2062   1.286       .  A
C2061      C2147   1.509       .  S
O2062     Cr2067   2.086       .  S
O2063     Cr2067   2.015       .  S
O2063      C2064   1.267       .  A
C2064      C2197   1.505       .  S
Cr2065     O2068   1.778       .  S
Cr2066     O2068   1.783       .  S
Cr2067     O2068   1.755       .  S
O2069     Cr2087   2.027       .  S
O2069      C2077   1.271       .  A
O2070     Cr2087   2.113       .  S
O2070      C2071   1.296       .  A
C2071      O2072   1.252       .  A
C2071      C2117   1.514       .  S
O2072     Cr2088   1.917       .  S
O2073     Cr2088   1.999       .  S
O2073      C2074   1.256       .  A
C2074      O2075   1.253       .  A
C2074      C4137   1.448       .  S
O2075     Cr2089   1.949       .  S
O2076     Cr2089   2.002       .  S
O2076      C2077   1.263       .  A
C2077      C2217   1.513       .  S
O2078     Cr2087   2.095       .  S
O2078      C2086   1.290       .  A
O2079     Cr2087   2.040       .  S
O2079      C2080   1.267       .  A
C2080      O2081   1.254       .  A
C2080      C2157   1.507       .  S
O2081     Cr2088   1.983       .  S
O2082     Cr2088   1.930       .  S
O2082      C2083   1.247       .  A
C2083      O2084   1.268       .  A
C2083      C3857   1.427       .  S
O2084     Cr2089   2.005       .  S
O2085     Cr2089   1.954       .  S
O2085      C2086   1.257       .  A
C2086      C2277   1.526       .  S
Cr2087     O2090   1.764       .  S
Cr2088     O2090   1.787       .  S
Cr2089     O2090   1.765       .  S
O2091     Cr2109   1.966       .  S
O2091      C2099   1.263       .  A
O2092     Cr2109   1.999       .  S
O2092      C2093   1.262       .  A
C2093      O2094   1.248       .  A
C2093      C3934   1.439       .  S
O2094     Cr2110   1.941       .  S
O2095     Cr2110   1.987       .  S
O2095      C2096   1.256       .  A
C2096      O2097   1.273       .  A
C2096      C2137   1.514       .  S
O2097     Cr2111   2.041       .  S
O2098     Cr2111   2.072       .  S
O2098      C2099   1.284       .  A
C2099      C2257   1.510       .  S
O2100     Cr2109   2.001       .  S
O2100      C2108   1.261       .  A
O2101     Cr2109   1.950       .  S
O2101      C2102   1.257       .  A
C2102      O2103   1.262       .  A
C2102      C4057   1.450       .  S
O2103     Cr2110   2.000       .  S
O2104     Cr2110   1.922       .  S
O2104      C2105   1.251       .  A
C2105      O2106   1.287       .  A
C2105      C2167   1.496       .  S
O2106     Cr2111   2.077       .  S
O2107     Cr2111   2.049       .  S
O2107      C2108   1.274       .  A
C2108      C2237   1.523       .  S
Cr2109     O2112   1.767       .  S
Cr2110     O2112   1.790       .  S
Cr2111     O2112   1.760       .  S
C2113      C2114   1.421       .  A
C2113      C2118   1.420       .  A
C2113      H2120   1.082       .  S
C2114      C2115   1.400       .  A
C2115      C2116   1.398       .  A
C2115      F2122   1.358       .  S
C2116      C2117   1.421       .  A
C2116      H2121   1.082       .  S
C2117      C2118   1.406       .  A
C2118      F2119   1.356       .  S
C2123      C2124   1.418       .  A
C2123      C2128   1.397       .  A
C2123      H2130   1.083       .  S
C2124      C2125   1.407       .  A
C2125      C2126   1.416       .  A
C2125      F2132   1.357       .  S
C2126      C2127   1.418       .  A
C2126      H2131   1.083       .  S
C2127      C2128   1.400       .  A
C2128      F2129   1.357       .  S
C2133      C2134   1.407       .  A
C2133      C2138   1.422       .  A
C2133      H2140   1.083       .  S
C2134      C2135   1.428       .  A
C2135      C2136   1.401       .  A
C2135      F2142   1.356       .  S
C2136      C2137   1.396       .  A
C2136      H2141   1.084       .  S
C2137      C2138   1.425       .  A
C2138      F2139   1.357       .  S
C2143      C2144   1.419       .  A
C2143      C2148   1.415       .  A
C2143      H2150   1.083       .  S
C2144      C2145   1.401       .  A
C2145      C2146   1.401       .  A
C2145      F2152   1.357       .  S
C2146      C2147   1.419       .  A
C2146      H2151   1.083       .  S
C2147      C2148   1.406       .  A
C2148      F2149   1.357       .  S
C2153      C2154   1.403       .  A
C2153      C2158   1.412       .  A
C2153      H2160   1.083       .  S
C2154      C2155   1.418       .  A
C2155      C2156   1.408       .  A
C2155      F2162   1.357       .  S
C2156      C2157   1.401       .  A
C2156      H2161   1.083       .  S
C2157      C2158   1.420       .  A
C2158      F2159   1.356       .  S
C2163      C2164   1.421       .  A
C2163      C2168   1.404       .  A
C2163      H2170   1.083       .  S
C2164      C2165   1.400       .  A
C2165      C2166   1.404       .  A
C2165      F2172   1.357       .  S
C2166      C2167   1.419       .  A
C2166      H2171   1.083       .  S
C2167      C2168   1.399       .  A
C2168      F2169   1.357       .  S
C2173      C2174   1.416       .  A
C2173      C2178   1.412       .  A
C2173      H2180   1.083       .  S
C2174      C2175   1.405       .  A
C2175      C2176   1.411       .  A
C2175      F2182   1.357       .  S
C2176      C2177   1.418       .  A
C2176      H2181   1.083       .  S
C2177      C2178   1.408       .  A
C2178      F2179   1.357       .  S
C2183      C2184   1.397       .  A
C2183      C2188   1.381       .  A
C2183      H2190   1.085       .  S
C2184      C2185   1.410       .  A
C2185      C2186   1.391       .  A
C2185      F2192   1.357       .  S
C2186      C2187   1.395       .  A
C2186      H2191   1.084       .  S
C2187      C2188   1.403       .  A
C2188      F2189   1.359       .  S
C2193      C2194   1.406       .  A
C2193      C2198   1.415       .  A
C2193      H2200   1.083       .  S
C2194      C2195   1.423       .  A
C2195      C2196   1.400       .  A
C2195      F2202   1.358       .  S
C2196      C2197   1.400       .  A
C2196      H2201   1.084       .  S
C2197      C2198   1.419       .  A
C2198      F2199   1.357       .  S
C2203      C2204   1.401       .  A
C2203      C2208   1.393       .  A
C2203      H2210   1.084       .  S
C2204      C2205   1.399       .  A
C2205      C2206   1.385       .  A
C2205      F2212   1.359       .  S
C2206      C2207   1.401       .  A
C2206      H2211   1.084       .  S
C2207      C2208   1.401       .  A
C2208      F2209   1.357       .  S
C2213      C2214   1.405       .  A
C2213      C2218   1.414       .  A
C2213      H2220   1.083       .  S
C2214      C2215   1.421       .  A
C2215      C2216   1.409       .  A
C2215      F2222   1.358       .  S
C2216      C2217   1.404       .  A
C2216      H2221   1.084       .  S
C2217      C2218   1.419       .  A
C2218      F2219   1.357       .  S
C2223      C2224   1.397       .  A
C2223      C2228   1.385       .  A
C2223      H2230   1.084       .  S
C2224      C2225   1.400       .  A
C2225      C2226   1.385       .  A
C2225      F2232   1.358       .  S
C2226      C2227   1.398       .  A
C2226      H2231   1.084       .  S
C2227      C2228   1.402       .  A
C2228      F2229   1.359       .  S
C2233      C2234   1.418       .  A
C2233      C2238   1.420       .  A
C2233      H2240   1.082       .  S
C2234      C2235   1.409       .  A
C2235      C2236   1.413       .  A
C2235      F2242   1.357       .  S
C2236      C2237   1.416       .  A
C2236      H2241   1.083       .  S
C2237      C2238   1.411       .  A
C2238      F2239   1.357       .  S
C2243      C2244   1.404       .  A
C2243      C2248   1.394       .  A
C2243      H2250   1.085       .  S
C2244      C2245   1.394       .  A
C2245      C2246   1.381       .  A
C2245      F2252   1.355       .  S
C2246      C2247   1.402       .  A
C2246      H2251   1.085       .  S
C2247      C2248   1.398       .  A
C2248      F2249   1.357       .  S
C2253      C2254   1.414       .  A
C2253      C2258   1.417       .  A
C2253      H2260   1.083       .  S
C2254      C2255   1.411       .  A
C2255      C2256   1.402       .  A
C2255      F2262   1.358       .  S
C2256      C2257   1.411       .  A
C2256      H2261   1.084       .  S
C2257      C2258   1.412       .  A
C2258      F2259   1.357       .  S
C2263      C2264   1.395       .  A
C2263      C2268   1.386       .  A
C2263      H2270   1.084       .  S
C2264      C2265   1.406       .  A
C2265      C2266   1.396       .  A
C2265      F2272   1.357       .  S
C2266      C2267   1.399       .  A
C2266      H2271   1.083       .  S
C2267      C2268   1.409       .  A
C2268      F2269   1.358       .  S
C2273      C2274   1.400       .  A
C2273      C2278   1.411       .  A
C2273      H2280   1.084       .  S
C2274      C2275   1.422       .  A
C2275      C2276   1.418       .  A
C2275      F2282   1.358       .  S
C2276      C2277   1.407       .  A
C2276      H2281   1.083       .  S
C2277      C2278   1.427       .  A
C2278      F2279   1.357       .  S
C2283      C2284   1.398       .  A
C2283      C2288   1.381       .  A
C2283      H2290   1.085       .  S
C2284      C2285   1.399       .  A
C2285      C2286   1.387       .  A
C2285      F2292   1.358       .  S
C2286      C2287   1.400       .  A
C2286      H2291   1.085       .  S
C2287      C2288   1.397       .  A
C2288      F2289   1.358       .  S
C2293      C2294   1.397       .  A
C2293      C2298   1.400       .  A
C2293      H2300   1.084       .  S
C2294      C2295   1.422       .  A
C2295      C2296   1.416       .  A
C2295      F2302   1.357       .  S
C2296      C2297   1.405       .  A
C2296      H2301   1.083       .  S
C2297      C2298   1.427       .  A
C2298      F2299   1.358       .  S
C2303      C2304   1.419       .  A
C2303      C2308   1.400       .  A
C2303      H2310   1.082       .  S
C2304      C2305   1.407       .  A
C2305      C2306   1.419       .  A
C2305      F2312   1.356       .  S
C2306      C2307   1.420       .  A
C2306      H2311   1.082       .  S
C2307      C2308   1.403       .  A
C2308      F2309   1.358       .  S
C2313      C2314   1.396       .  A
C2313      C2318   1.406       .  A
C2313      H2320   1.083       .  S
C2314      C2315   1.424       .  A
C2315      C2316   1.409       .  A
C2315      F2322   1.358       .  S
C2316      C2317   1.399       .  A
C2316      H2321   1.083       .  S
C2317      C2318   1.429       .  A
C2318      F2319   1.358       .  S
C2323      C2324   1.419       .  A
C2323      C2328   1.419       .  A
C2323      H2330   1.085       .  S
C2324      C2325   1.404       .  A
C2325      C2326   1.394       .  A
C2325      F2332   1.358       .  S
C2326      C2327   1.412       .  A
C2326      H2331   1.086       .  S
C2327      C2328   1.408       .  A
C2328      F2329   1.357       .  S
C2333      C2334   1.403       .  A
C2333      C2338   1.412       .  A
C2333      H2340   1.083       .  S
C2334      C2335   1.418       .  A
C2335      C2336   1.410       .  A
C2335      F2342   1.356       .  S
C2336      C2337   1.403       .  A
C2336      H2341   1.083       .  S
C2337      C2338   1.419       .  A
C2338      F2339   1.357       .  S
C2343      C2344   1.422       .  A
C2343      C2348   1.418       .  A
C2343      H2350   1.083       .  S
C2344      C2345   1.401       .  A
C2345      C2346   1.405       .  A
C2345      F2352   1.357       .  S
C2346      C2347   1.422       .  A
C2346      H2351   1.083       .  S
C2347      C2348   1.405       .  A
C2348      F2349   1.356       .  S
C2353      C2354   1.405       .  A
C2353      C2358   1.407       .  A
C2353      H2360   1.084       .  S
C2354      C2355   1.419       .  A
C2355      C2356   1.418       .  A
C2355      F2362   1.356       .  S
C2356      C2357   1.408       .  A
C2356      H2361   1.083       .  S
C2357      C2358   1.422       .  A
C2358      F2359   1.358       .  S
C2363      C2364   1.403       .  A
C2363      C2368   1.392       .  A
C2363      H2370   1.084       .  S
C2364      C2365   1.395       .  A
C2365      C2366   1.384       .  A
C2365      F2372   1.358       .  S
C2366      C2367   1.402       .  A
C2366      H2371   1.085       .  S
C2367      C2368   1.398       .  A
C2368      F2369   1.358       .  S
C2373      C2374   1.408       .  A
C2373      C2378   1.416       .  A
C2373      H2380   1.083       .  S
C2374      C2375   1.415       .  A
C2375      C2376   1.411       .  A
C2375      F2382   1.357       .  S
C2376      C2377   1.409       .  A
C2376      H2381   1.083       .  S
C2377      C2378   1.419       .  A
C2378      F2379   1.357       .  S
C2383      C2384   1.396       .  A
C2383      C2388   1.395       .  A
C2383      H2390   1.083       .  S
C2384      C2385   1.407       .  A
C2385      C2386   1.386       .  A
C2385      F2392   1.358       .  S
C2386      C2387   1.394       .  A
C2386      H2391   1.084       .  S
C2387      C2388   1.407       .  A
C2388      F2389   1.358       .  S
C2393      C2394   1.418       .  A
C2393      C2398   1.416       .  A
C2393      H2400   1.083       .  S
C2394      C2395   1.407       .  A
C2395      C2396   1.414       .  A
C2395      F2402   1.357       .  S
C2396      C2397   1.419       .  A
C2396      H2401   1.083       .  S
C2397      C2398   1.409       .  A
C2398      F2399   1.357       .  S
C2403      C2404   1.402       .  A
C2403      C2408   1.384       .  A
C2403      H2410   1.084       .  S
C2404      C2405   1.396       .  A
C2405      C2406   1.393       .  A
C2405      F2412   1.357       .  S
C2406      C2407   1.407       .  A
C2406      H2411   1.082       .  S
C2407      C2408   1.401       .  A
C2408      F2409   1.358       .  S
C2413      C2414   1.415       .  A
C2413      C2418   1.415       .  A
C2413      H2420   1.083       .  S
C2414      C2415   1.413       .  A
C2415      C2416   1.414       .  A
C2415      F2422   1.357       .  S
C2416      C2417   1.413       .  A
C2416      H2421   1.084       .  S
C2417      C2418   1.411       .  A
C2418      F2419   1.357       .  S
C2423      C2424   1.400       .  A
C2423      C2428   1.385       .  A
C2423      H2430   1.085       .  S
C2424      C2425   1.394       .  A
C2425      C2426   1.388       .  A
C2425      F2432   1.357       .  S
C2426      C2427   1.402       .  A
C2426      H2431   1.084       .  S
C2427      C2428   1.396       .  A
C2428      F2429   1.358       .  S
C2433      C2434   1.407       .  A
C2433      C2438   1.418       .  A
C2433      H2440   1.083       .  S
C2434      C2435   1.422       .  A
C2435      C2436   1.412       .  A
C2435      F2442   1.357       .  S
C2436      C2437   1.403       .  A
C2436      H2441   1.083       .  S
C2437      C2438   1.421       .  A
C2438      F2439   1.357       .  S
C2443      C2444   1.398       .  A
C2443      C2448   1.388       .  A
C2443      H2450   1.084       .  S
C2444      C2445   1.399       .  A
C2445      C2446   1.382       .  A
C2445      F2452   1.357   1_455  S
C2446      C2447   1.398       .  A
C2446      H2451   1.084       .  S
C2447      C2448   1.403       .  A
C2448      F2449   1.359       .  S
C2453      C2454   1.409       .  A
C2453      C2458   1.422       .  A
C2453      H2460   1.083       .  S
C2454      C2455   1.425       .  A
C2455      C2456   1.409       .  A
C2455      F2462   1.358       .  S
C2456      C2457   1.404       .  A
C2456      H2461   1.084       .  S
C2457      C2458   1.423       .  A
C2458      F2459   1.357       .  S
C2463      C2464   1.396       .  A
C2463      C2468   1.393       .  A
C2463      H2470   1.084       .  S
C2464      C2465   1.404       .  A
C2465      C2466   1.383       .  A
C2465      F2472   1.357       .  S
C2466      C2467   1.394       .  A
C2466      H2471   1.084       .  S
C2467      C2468   1.408       .  A
C2468      F2469   1.358       .  S
C2473      C2474   1.418       .  A
C2473      C2478   1.414       .  A
C2473      H2480   1.083       .  S
C2474      C2475   1.407       .  A
C2475      C2476   1.409       .  A
C2475      F2482   1.357       .  S
C2476      C2477   1.417       .  A
C2476      H2481   1.083       .  S
C2477      C2478   1.407       .  A
C2478      F2479   1.357       .  S
C2483      C2484   1.420       .  A
C2483      C2488   1.413       .  A
C2483      H2490   1.083       .  S
C2484      C2485   1.408       .  A
C2485      C2486   1.416       .  A
C2485      F2492   1.356       .  S
C2486      C2487   1.417       .  A
C2486      H2491   1.083       .  S
C2487      C2488   1.407       .  A
C2488      F2489   1.357       .  S
C2493      C2494   1.398       .  A
C2493      C2498   1.381       .  A
C2493      H2500   1.085       .  S
C2494      C2495   1.399       .  A
C2495      C2496   1.392   1_565  A
C2495      F2502   1.357   1_565  S
C2496      C2497   1.403   1_545  A
C2496      H2501   1.084       .  S
C2497      C2498   1.398       .  A
C2498      F2499   1.358       .  S
C2503      C2504   1.401       .  A
C2503      C2508   1.384       .  A
C2503      H2510   1.084       .  S
C2504      C2505   1.409       .  A
C2505      C2506   1.387       .  A
C2505      F2512   1.357   1_565  S
C2506      C2507   1.393       .  A
C2506      H2511   1.084       .  S
C2507      C2508   1.399       .  A
C2508      F2509   1.358       .  S
C2513      C2514   1.402       .  A
C2513      C2518   1.408       .  A
C2513      H2520   1.082       .  S
C2514      C2515   1.417       .  A
C2515      C2516   1.408       .  A
C2515      F2522   1.356       .  S
C2516      C2517   1.402       .  A
C2516      H2521   1.082       .  S
C2517      C2518   1.417       .  A
C2518      F2519   1.356       .  S
C2523      C2524   1.409       .  A
C2523      C2528   1.422       .  A
C2523      H2530   1.083       .  S
C2524      C2525   1.423       .  A
C2525      C2526   1.398       .  A
C2525      F2532   1.357       .  S
C2526      C2527   1.400       .  A
C2526      H2531   1.084       .  S
C2527      C2528   1.421       .  A
C2528      F2529   1.356       .  S
C2533      C2534   1.421       .  A
C2533      C2538   1.396       .  A
C2533      H2540   1.083       .  S
C2534      C2535   1.398       .  A
C2535      C2536   1.402       .  A
C2535      F2542   1.357       .  S
C2536      C2537   1.418       .  A
C2536      H2541   1.084       .  S
C2537      C2538   1.393       .  A
C2538      F2539   1.357       .  S
C2543      C2544   1.420       .  A
C2543      C2548   1.422       .  A
C2543      H2550   1.082       .  S
C2544      C2545   1.405       .  A
C2545      C2546   1.400       .  A
C2545      F2552   1.358       .  S
C2546      C2547   1.416       .  A
C2546      H2551   1.081       .  S
C2547      C2548   1.410       .  A
C2548      F2549   1.356       .  S
C2553      C2554   1.398       .  A
C2553      C2558   1.409       .  A
C2553      H2560   1.083       .  S
C2554      C2555   1.427       .  A
C2555      C2556   1.408       .  A
C2555      F2562   1.358       .  S
C2556      C2557   1.398       .  A
C2556      H2561   1.083       .  S
C2557      C2558   1.428       .  A
C2558      F2559   1.357       .  S
C2563      C2564   1.401       .  A
C2563      C2568   1.407       .  A
C2563      H2570   1.083       .  S
C2564      C2565   1.420       .  A
C2565      C2566   1.412       .  A
C2565      F2572   1.357       .  S
C2566      C2567   1.403       .  A
C2566      H2571   1.083       .  S
C2567      C2568   1.417       .  A
C2568      F2569   1.356       .  S
C2573      C2574   1.403       .  A
C2573      C2578   1.409       .  A
C2573      H2580   1.084       .  S
C2574      C2575   1.422       .  A
C2575      C2576   1.420       .  A
C2575      F2582   1.357       .  S
C2576      C2577   1.408       .  A
C2576      H2581   1.083       .  S
C2577      C2578   1.423       .  A
C2578      F2579   1.358       .  S
C2583      C2584   1.419       .  A
C2583      C2588   1.421       .  A
C2583      H2590   1.082       .  S
C2584      C2585   1.408       .  A
C2585      C2586   1.404       .  A
C2585      F2592   1.358       .  S
C2586      C2587   1.417       .  A
C2586      H2591   1.083       .  S
C2587      C2588   1.411       .  A
C2588      F2589   1.356       .  S
C2593      C2594   1.403       .  A
C2593      C2598   1.389       .  A
C2593      H2600   1.084       .  S
C2594      C2595   1.395       .  A
C2595      C2596   1.389       .  A
C2595      F2602   1.358       .  S
C2596      C2597   1.405       .  A
C2596      H2601   1.083       .  S
C2597      C2598   1.396       .  A
C2598      F2599   1.358       .  S
C2603      C2604   1.396       .  A
C2603      C2608   1.391       .  A
C2603      H2610   1.083       .  S
C2604      C2605   1.395       .  A
C2605      C2606   1.381       .  A
C2605      F2612   1.359       .  S
C2606      C2607   1.404       .  A
C2606      H2611   1.083       .  S
C2607      C2608   1.410       .  A
C2608      F2609   1.358       .  S
C2613      C2614   1.402       .  A
C2613      C2618   1.399       .  A
C2613      H2620   1.084       .  S
C2614      C2615   1.418       .  A
C2615      C2616   1.423       .  A
C2615      F2622   1.357       .  S
C2616      C2617   1.412       .  A
C2616      H2621   1.083       .  S
C2617      C2618   1.417       .  A
C2618      F2619   1.357       .  S
C2623      C2624   1.401       .  A
C2623      C2628   1.404       .  A
C2623      H2630   1.083       .  S
C2624      C2625   1.416       .  A
C2625      C2626   1.405       .  A
C2625      F2632   1.358       .  S
C2626      C2627   1.403       .  A
C2626      H2631   1.083       .  S
C2627      C2628   1.419       .  A
C2628      F2629   1.358       .  S
C2633      C2634   1.399       .  A
C2633      C2638   1.382       .  A
C2633      H2640   1.085       .  S
C2634      C2635   1.399       .  A
C2635      C2636   1.397       .  A
C2635      F2642   1.357       .  S
C2636      C2637   1.406       .  A
C2636      H2641   1.084       .  S
C2637      C2638   1.401       .  A
C2638      F2639   1.358       .  S
C2643      C2644   1.403       .  A
C2643      C2648   1.392       .  A
C2643      H2650   1.085       .  S
C2644      C2645   1.395       .  A
C2645      C2646   1.383       .  A
C2645      F2652   1.358       .  S
C2646      C2647   1.404       .  A
C2646      H2651   1.085       .  S
C2647      C2648   1.399       .  A
C2648      F2649   1.357       .  S
C2653      C2654   1.409       .  A
C2653      C2658   1.416       .  A
C2653      H2660   1.083       .  S
C2654      C2655   1.418       .  A
C2655      C2656   1.419       .  A
C2655      F2662   1.357       .  S
C2656      C2657   1.412       .  A
C2656      H2661   1.083       .  S
C2657      C2658   1.420       .  A
C2658      F2659   1.357       .  S
C2663      C2664   1.401       .  A
C2663      C2668   1.379       .  A
C2663      H2670   1.084   1_455  S
C2664      C2665   1.392       .  A
C2665      C2666   1.383       .  A
C2665      F2672   1.358       .  S
C2666      C2667   1.406       .  A
C2666      H2671   1.085       .  S
C2667      C2668   1.391       .  A
C2668      F2669   1.358       .  S
C2673      C2674   1.405       .  A
C2673      C2678   1.409       .  A
C2673      H2680   1.084       .  S
C2674      C2675   1.420       .  A
C2675      C2676   1.424       .  A
C2675      F2682   1.357       .  S
C2676      C2677   1.412       .  A
C2676      H2681   1.083       .  S
C2677      C2678   1.422       .  A
C2678      F2679   1.358       .  S
C2683      C2684   1.403       .  A
C2683      C2688   1.383       .  A
C2683      H2690   1.084       .  S
C2684      C2685   1.399       .  A
C2685      C2686   1.395       .  A
C2685      F2692   1.358       .  S
C2686      C2687   1.408       .  A
C2686      H2691   1.083       .  S
C2687      C2688   1.397       .  A
C2688      F2689   1.358       .  S
C2693      C2694   1.418       .  A
C2693      C2698   1.408       .  A
C2693      H2700   1.083       .  S
C2694      C2695   1.411       .  A
C2695      C2696   1.421       .  A
C2695      F2702   1.356       .  S
C2696      C2697   1.420       .  A
C2696      H2701   1.083       .  S
C2697      C2698   1.407       .  A
C2698      F2699   1.357       .  S
C2703      C2704   1.419       .  A
C2703      C2708   1.414       .  A
C2703      H2710   1.083       .  S
C2704      C2705   1.406       .  A
C2705      C2706   1.409       .  A
C2705      F2712   1.357       .  S
C2706      C2707   1.418       .  A
C2706      H2711   1.083       .  S
C2707      C2708   1.407       .  A
C2708      F2709   1.357       .  S
C2713      C2714   1.397       .  A
C2713      C2718   1.395       .  A
C2713      H2720   1.084       .  S
C2714      C2715   1.403       .  A
C2715      C2716   1.380       .  A
C2715      F2722   1.359       .  S
C2716      C2717   1.397       .  A
C2716      H2721   1.085       .  S
C2717      C2718   1.409       .  A
C2718      F2719   1.357       .  S
C2723      C2724   1.393       .  A
C2723      C2728   1.388       .  A
C2723      H2730   1.083       .  S
C2724      C2725   1.403       .  A
C2725      C2726   1.386       .  A
C2725      F2732   1.358       .  S
C2726      C2727   1.394       .  A
C2726      H2731   1.083       .  S
C2727      C2728   1.403       .  A
C2728      F2729   1.358       .  S
C2733      C2734   1.404       .  A
C2733      C2738   1.413       .  A
C2733      H2740   1.083       .  S
C2734      C2735   1.421       .  A
C2735      C2736   1.416       .  A
C2735      F2742   1.356       .  S
C2736      C2737   1.405       .  A
C2736      H2741   1.083       .  S
C2737      C2738   1.422       .  A
C2738      F2739   1.357       .  S
C2743      C2744   1.420       .  A
C2743      C2748   1.420       .  A
C2743      H2750   1.083       .  S
C2744      C2745   1.405       .  A
C2745      C2746   1.403       .  A
C2745      F2752   1.358       .  S
C2746      C2747   1.416       .  A
C2746      H2751   1.082       .  S
C2747      C2748   1.408       .  A
C2748      F2749   1.356       .  S
C2753      C2754   1.420       .  A
C2753      C2758   1.419       .  A
C2753      H2760   1.082       .  S
C2754      C2755   1.403       .  A
C2755      C2756   1.398       .  A
C2755      F2762   1.358       .  S
C2756      C2757   1.417       .  A
C2756      H2761   1.082       .  S
C2757      C2758   1.408       .  A
C2758      F2759   1.356       .  S
C2763      C2764   1.407       .  A
C2763      C2768   1.421       .  A
C2763      H2770   1.083       .  S
C2764      C2765   1.428       .  A
C2765      C2766   1.398       .  A
C2765      F2772   1.358       .  S
C2766      C2767   1.397       .  A
C2766      H2771   1.084       .  S
C2767      C2768   1.422       .  A
C2768      F2769   1.356       .  S
C2773      C2774   1.406       .  A
C2773      C2778   1.418       .  A
C2773      H2780   1.083       .  S
C2774      C2775   1.427       .  A
C2775      C2776   1.398       .  A
C2775      F2782   1.358       .  S
C2776      C2777   1.396       .  A
C2776      H2781   1.083       .  S
C2777      C2778   1.421       .  A
C2778      F2779   1.357       .  S
C2783      C2784   1.394       .  A
C2783      C2788   1.402       .  A
C2783      H2790   1.083       .  S
C2784      C2785   1.422       .  A
C2785      C2786   1.406       .  A
C2785      F2792   1.358       .  S
C2786      C2787   1.400       .  A
C2786      H2791   1.083       .  S
C2787      C2788   1.427       .  A
C2788      F2789   1.358       .  S
C2793      C2794   1.407       .  A
C2793      C2798   1.415       .  A
C2793      H2800   1.083       .  S
C2794      C2795   1.420       .  A
C2795      C2796   1.405       .  A
C2795      F2802   1.358       .  S
C2796      C2797   1.403       .  A
C2796      H2801   1.084       .  S
C2797      C2798   1.418       .  A
C2798      F2799   1.357       .  S
C2803      C2804   1.415       .  A
C2803      C2808   1.410       .  A
C2803      H2810   1.083       .  S
C2804      C2805   1.407       .  A
C2805      C2806   1.409       .  A
C2805      F2812   1.357       .  S
C2806      C2807   1.414       .  A
C2806      H2811   1.083       .  S
C2807      C2808   1.408       .  A
C2808      F2809   1.357       .  S
C2813      C2814   1.401       .  A
C2813      C2818   1.392       .  A
C2813      H2820   1.085       .  S
C2814      C2815   1.400       .  A
C2815      C2816   1.381       .  A
C2815      F2822   1.358       .  S
C2816      C2817   1.396       .  A
C2816      H2821   1.083       .  S
C2817      C2818   1.399       .  A
C2818      F2819   1.357       .  S
C2823      C2824   1.403       .  A
C2823      C2828   1.391       .  A
C2823      H2830   1.084       .  S
C2824      C2825   1.399       .  A
C2825      C2826   1.386       .  A
C2825      F2832   1.358       .  S
C2826      C2827   1.401       .  A
C2826      H2831   1.084       .  S
C2827      C2828   1.397       .  A
C2828      F2829   1.357       .  S
C2833      C2834   1.421       .  A
C2833      C2838   1.423       .  A
C2833      H2840   1.082       .  S
C2834      C2835   1.406       .  A
C2835      C2836   1.405       .  A
C2835      F2842   1.357       .  S
C2836      C2837   1.418       .  A
C2836      H2841   1.082       .  S
C2837      C2838   1.411       .  A
C2838      F2839   1.356       .  S
C2843      C2844   1.407       .  A
C2843      C2848   1.416       .  A
C2843      H2850   1.083       .  S
C2844      C2845   1.418       .  A
C2845      C2846   1.403       .  A
C2845      F2852   1.358       .  S
C2846      C2847   1.402       .  A
C2846      H2851   1.083       .  S
C2847      C2848   1.419       .  A
C2848      F2849   1.357       .  S
C2853      C2854   1.402       .  A
C2853      C2858   1.382       .  A
C2853      H2860   1.084       .  S
C2854      C2855   1.395       .  A
C2855      C2856   1.391       .  A
C2855      F2862   1.357       .  S
C2856      C2857   1.406       .  A
C2856      H2861   1.081       .  S
C2857      C2858   1.398       .  A
C2858      F2859   1.359       .  S
C2863      C2864   1.394       .  A
C2863      C2868   1.386       .  A
C2863      H2870   1.083       .  S
C2864      C2865   1.403       .  A
C2865      C2866   1.388       .  A
C2865      F2872   1.357       .  S
C2866      C2867   1.393       .  A
C2866      H2871   1.083       .  S
C2867      C2868   1.403       .  A
C2868      F2869   1.358       .  S
C2873      C2874   1.416       .  A
C2873      C2878   1.401       .  A
C2873      H2880   1.083       .  S
C2874      C2875   1.411       .  A
C2875      C2876   1.422       .  A
C2875      F2882   1.357       .  S
C2876      C2877   1.419       .  A
C2876      H2881   1.082       .  S
C2877      C2878   1.406       .  A
C2878      F2879   1.357       .  S
C2883      C2884   1.405       .  A
C2883      C2888   1.391       .  A
C2883      H2890   1.084       .  S
C2884      C2885   1.398       .  A
C2885      C2886   1.387       .  A
C2885      F2892   1.358       .  S
C2886      C2887   1.402       .  A
C2886      H2891   1.085       .  S
C2887      C2888   1.396       .  A
C2888      F2889   1.358       .  S
C2893      C2894   1.400       .  A
C2893      C2898   1.406       .  A
C2893      H2900   1.083       .  S
C2894      C2895   1.423       .  A
C2895      C2896   1.407       .  A
C2895      F2902   1.358       .  S
C2896      C2897   1.399       .  A
C2896      H2901   1.083       .  S
C2897      C2898   1.421       .  A
C2898      F2899   1.358       .  S
C2903      C2904   1.404       .  A
C2903      C2908   1.393       .  A
C2903      H2910   1.083       .  S
C2904      C2905   1.400       .  A
C2905      C2906   1.383       .  A
C2905      F2912   1.358       .  S
C2906      C2907   1.399       .  A
C2906      H2911   1.084       .  S
C2907      C2908   1.398       .  A
C2908      F2909   1.358       .  S
C2913      C2914   1.402       .  A
C2913      C2918   1.406       .  A
C2913      H2920   1.084       .  S
C2914      C2915   1.424       .  A
C2915      C2916   1.424       .  A
C2915      F2922   1.356       .  S
C2916      C2917   1.409       .  A
C2916      H2921   1.083       .  S
C2917      C2918   1.426       .  A
C2918      F2919   1.358       .  S
C2923      C2924   1.405       .  A
C2923      C2928   1.415       .  A
C2923      H2930   1.083       .  S
C2924      C2925   1.418       .  A
C2925      C2926   1.410       .  A
C2925      F2932   1.356       .  S
C2926      C2927   1.404       .  A
C2926      H2931   1.083       .  S
C2927      C2928   1.419       .  A
C2928      F2929   1.357       .  S
C2933      C2934   1.417       .  A
C2933      C2938   1.404       .  A
C2933      H2940   1.083       .  S
C2934      C2935   1.409       .  A
C2935      C2936   1.418       .  A
C2935      F2942   1.357       .  S
C2936      C2937   1.420       .  A
C2936      H2941   1.082       .  S
C2937      C2938   1.405       .  A
C2938      F2939   1.357       .  S
C2943      C2944   1.406       .  A
C2943      C2948   1.398       .  A
C2943      H2950   1.083       .  S
C2944      C2945   1.401       .  A
C2945      C2946   1.383       .  A
C2945      F2952   1.358       .  S
C2946      C2947   1.400       .  A
C2946      H2951   1.085       .  S
C2947      C2948   1.400       .  A
C2948      F2949   1.357       .  S
C2953      C2954   1.424       .  A
C2953      C2958   1.406       .  A
C2953      H2960   1.082       .  S
C2954      C2955   1.400       .  A
C2955      C2956   1.408       .  A
C2955      F2962   1.357       .  S
C2956      C2957   1.423       .  A
C2956      H2961   1.083       .  S
C2957      C2958   1.398       .  A
C2958      F2959   1.357       .  S
C2963      C2964   1.401       .  A
C2963      C2968   1.383       .  A
C2963      H2970   1.085       .  S
C2964      C2965   1.400       .  A
C2965      C2966   1.399       .  A
C2965      F2972   1.357       .  S
C2966      C2967   1.407       .  A
C2966      H2971   1.083       .  S
C2967      C2968   1.401       .  A
C2968      F2969   1.358       .  S
C2973      C2974   1.405       .  A
C2973      C2978   1.392       .  A
C2973      H2980   1.085       .  S
C2974      C2975   1.394       .  A
C2975      C2976   1.386       .  A
C2975      F2982   1.357       .  S
C2976      C2977   1.401       .  A
C2976      H2981   1.085       .  S
C2977      C2978   1.397       .  A
C2978      F2979   1.358       .  S
C2983      C2984   1.403       .  A
C2983      C2988   1.410       .  A
C2983      H2990   1.083       .  S
C2984      C2985   1.419       .  A
C2985      C2986   1.414       .  A
C2985      F2992   1.356       .  S
C2986      C2987   1.404       .  A
C2986      H2991   1.083       .  S
C2987      C2988   1.418       .  A
C2988      F2989   1.356       .  S
C2993      C2994   1.409       .  A
C2993      C2998   1.417       .  A
C2993      H3000   1.083       .  S
C2994      C2995   1.421       .  A
C2995      C2996   1.411       .  A
C2995      F3002   1.357       .  S
C2996      C2997   1.406       .  A
C2996      H3001   1.084       .  S
C2997      C2998   1.420       .  A
C2998      F2999   1.357       .  S
C3003      C3004   1.396       .  A
C3003      C3008   1.405       .  A
C3003      H3010   1.083       .  S
C3004      C3005   1.423       .  A
C3005      C3006   1.411       .  A
C3005      F3012   1.357       .  S
C3006      C3007   1.401       .  A
C3006      H3011   1.083       .  S
C3007      C3008   1.428       .  A
C3008      F3009   1.358       .  S
C3013      C3014   1.405       .  A
C3013      C3018   1.411       .  A
C3013      H3020   1.083       .  S
C3014      C3015   1.422       .  A
C3015      C3016   1.414       .  A
C3015      F3022   1.357       .  S
C3016      C3017   1.405       .  A
C3016      H3021   1.083       .  S
C3017      C3018   1.419       .  A
C3018      F3019   1.357       .  S
C3023      C3024   1.406       .  A
C3023      C3028   1.386       .  A
C3023      H3030   1.084       .  S
C3024      C3025   1.396       .  A
C3025      C3026   1.393       .  A
C3025      F3032   1.357       .  S
C3026      C3027   1.404       .  A
C3026      H3031   1.084       .  S
C3027      C3028   1.393       .  A
C3028      F3029   1.358       .  S
C3033      C3034   1.419       .  A
C3033      C3038   1.420       .  A
C3033      H3040   1.083       .  S
C3034      C3035   1.407       .  A
C3035      C3036   1.402       .  A
C3035      F3042   1.357       .  S
C3036      C3037   1.413       .  A
C3036      H3041   1.084       .  S
C3037      C3038   1.409       .  A
C3038      F3039   1.357       .  S
C3043      C3044   1.418       .  A
C3043      C3048   1.395       .  A
C3043      H3050   1.083       .  S
C3044      C3045   1.406       .  A
C3045      C3046   1.414       .  A
C3045      F3052   1.356       .  S
C3046      C3047   1.417       .  A
C3046      H3051   1.083       .  S
C3047      C3048   1.400       .  A
C3048      F3049   1.358       .  S
C3053      C3054   1.402       .  A
C3053      C3058   1.411       .  A
C3053      H3060   1.084       .  S
C3054      C3055   1.420       .  A
C3055      C3056   1.417       .  A
C3055      F3062   1.357       .  S
C3056      C3057   1.407       .  A
C3056      H3061   1.083       .  S
C3057      C3058   1.425       .  A
C3058      F3059   1.358       .  S
C3063      C3064   1.406       .  A
C3063      C3068   1.412       .  A
C3063      H3070   1.084       .  S
C3064      C3065   1.420       .  A
C3065      C3066   1.416       .  A
C3065      F3072   1.357       .  S
C3066      C3067   1.408       .  A
C3066      H3071   1.083       .  S
C3067      C3068   1.419       .  A
C3068      F3069   1.357       .  S
C3073      C3074   1.406       .  A
C3073      C3078   1.396       .  A
C3073      H3080   1.084       .  S
C3074      C3075   1.395       .  A
C3075      C3076   1.387       .  A
C3075      F3082   1.358       .  S
C3076      C3077   1.404       .  A
C3076      H3081   1.084       .  S
C3077      C3078   1.398       .  A
C3078      F3079   1.357       .  S
C3083      C3084   1.394       .  A
C3083      C3088   1.389       .  A
C3083      H3090   1.085       .  S
C3084      C3085   1.396       .  A
C3085      C3086   1.381       .  A
C3085      F3092   1.359       .  S
C3086      C3087   1.403       .  A
C3086      H3091   1.084       .  S
C3087      C3088   1.409       .  A
C3088      F3089   1.357       .  S
C3093      C3094   1.406       .  A
C3093      C3098   1.409       .  A
C3093      H3100   1.083       .  S
C3094      C3095   1.419       .  A
C3095      C3096   1.413       .  A
C3095      F3102   1.357       .  S
C3096      C3097   1.406       .  A
C3096      H3101   1.083       .  S
C3097      C3098   1.416       .  A
C3098      F3099   1.358       .  S
C3103      C3104   1.416       .  A
C3103      C3108   1.405       .  A
C3103      H3110   1.083       .  S
C3104      C3105   1.410       .  A
C3105      C3106   1.419       .  A
C3105      F3112   1.357       .  S
C3106      C3107   1.419       .  A
C3106      H3111   1.083       .  S
C3107      C3108   1.407       .  A
C3108      F3109   1.357       .  S
C3113      C3114   1.394       .  A
C3113      C3118   1.386       .  A
C3113      H3120   1.084       .  S
C3114      C3115   1.400       .  A
C3115      C3116   1.386       .  A
C3115      F3122   1.357       .  S
C3116      C3117   1.399       .  A
C3116      H3121   1.084       .  S
C3117      C3118   1.407       .  A
C3118      F3119   1.359       .  S
C3123      C3124   1.403       .  A
C3123      C3128   1.389       .  A
C3123      H3130   1.085       .  S
C3124      C3125   1.395       .  A
C3125      C3126   1.383       .  A
C3125      F3132   1.357       .  S
C3126      C3127   1.399       .  A
C3126      H3131   1.085       .  S
C3127      C3128   1.394       .  A
C3128      F3129   1.358       .  S
C3133      C3134   1.402       .  A
C3133      C3138   1.412       .  A
C3133      H3140   1.083       .  S
C3134      C3135   1.421       .  A
C3135      C3136   1.413       .  A
C3135      F3142   1.356       .  S
C3136      C3137   1.403       .  A
C3136      H3141   1.083       .  S
C3137      C3138   1.421       .  A
C3138      F3139   1.355       .  S
C3143      C3144   1.403       .  A
C3143      C3148   1.404       .  A
C3143      H3150   1.083       .  S
C3144      C3145   1.418       .  A
C3145      C3146   1.415       .  A
C3145      F3152   1.357       .  S
C3146      C3147   1.407       .  A
C3146      H3151   1.083       .  S
C3147      C3148   1.418       .  A
C3148      F3149   1.358       .  S
C3153      C3154   1.420       .  A
C3153      C3158   1.421       .  A
C3153      H3160   1.083       .  S
C3154      C3155   1.404       .  A
C3155      C3156   1.399       .  A
C3155      F3162   1.358       .  S
C3156      C3157   1.418       .  A
C3156      H3161   1.083       .  S
C3157      C3158   1.408       .  A
C3158      F3159   1.356       .  S
C3163      C3164   1.417       .  A
C3163      C3168   1.423       .  A
C3163      H3170   1.083       .  S
C3164      C3165   1.408       .  A
C3165      C3166   1.410       .  A
C3165      F3172   1.357       .  S
C3166      C3167   1.417       .  A
C3166      H3171   1.083       .  S
C3167      C3168   1.413       .  A
C3168      F3169   1.356       .  S
C3173      C3174   1.420       .  A
C3173      C3178   1.423       .  A
C3173      H3180   1.082       .  S
C3174      C3175   1.408       .  A
C3175      C3176   1.399       .  A
C3175      F3182   1.357       .  S
C3176      C3177   1.411       .  A
C3176      H3181   1.080       .  S
C3177      C3178   1.409       .  A
C3178      F3179   1.357       .  S
C3183      C3184   1.414       .  A
C3183      C3188   1.405       .  A
C3183      H3190   1.083       .  S
C3184      C3185   1.409       .  A
C3185      C3186   1.413       .  A
C3185      F3192   1.357       .  S
C3186      C3187   1.415       .  A
C3186      H3191   1.083       .  S
C3187      C3188   1.407       .  A
C3188      F3189   1.357       .  S
C3193      C3194   1.401       .  A
C3193      C3198   1.385       .  A
C3193      H3200   1.085       .  S
C3194      C3195   1.395       .  A
C3195      C3196   1.390       .  A
C3195      F3202   1.358       .  S
C3196      C3197   1.408       .  A
C3196      H3201   1.084       .  S
C3197      C3198   1.399       .  A
C3198      F3199   1.358       .  S
C3203      C3204   1.421       .  A
C3203      C3208   1.409       .  A
C3203      H3210   1.083       .  S
C3204      C3205   1.405       .  A
C3205      C3206   1.411       .  A
C3205      F3212   1.357       .  S
C3206      C3207   1.419       .  A
C3206      H3211   1.084       .  S
C3207      C3208   1.403       .  A
C3208      F3209   1.357       .  S
C3213      C3214   1.404       .  A
C3213      C3218   1.384       .  A
C3213      H3220   1.085       .  S
C3214      C3215   1.400       .  A
C3215      C3216   1.392       .  A
C3215      F3222   1.358       .  S
C3216      C3217   1.403       .  A
C3216      H3221   1.084       .  S
C3217      C3218   1.395       .  A
C3218      F3219   1.357       .  S
C3223      C3224   1.407       .  A
C3223      C3228   1.388       .  A
C3223      H3230   1.083       .  S
C3224      C3225   1.405       .  A
C3225      C3226   1.381       .  A
C3225      F3232   1.358       .  S
C3226      C3227   1.396       .  A
C3226      H3231   1.084       .  S
C3227      C3228   1.394       .  A
C3228      F3229   1.358       .  S
C3233      C3234   1.422       .  A
C3233      C3238   1.421       .  A
C3233      H3240   1.082       .  S
C3234      C3235   1.402       .  A
C3235      C3236   1.397       .  A
C3235      F3242   1.358       .  S
C3236      C3237   1.418       .  A
C3236      H3241   1.077       .  S
C3237      C3238   1.407       .  A
C3238      F3239   1.356       .  S
C3243      C3244   1.418       .  A
C3243      C3248   1.400       .  A
C3243      H3250   1.081       .  S
C3244      C3245   1.404       .  A
C3245      C3246   1.414       .  A
C3245      F3252   1.356       .  S
C3246      C3247   1.419       .  A
C3246      H3251   1.083       .  S
C3247      C3248   1.403       .  A
C3248      F3249   1.358       .  S
C3253      C3254   1.418       .  A
C3253      C3258   1.421       .  A
C3253      H3260   1.083       .  S
C3254      C3255   1.408       .  A
C3255      C3256   1.406       .  A
C3255      F3262   1.358       .  S
C3256      C3257   1.417       .  A
C3256      H3261   1.084       .  S
C3257      C3258   1.411       .  A
C3258      F3259   1.356       .  S
C3263      C3264   1.400       .  A
C3263      C3268   1.407       .  A
C3263      H3270   1.084       .  S
C3264      C3265   1.417       .  A
C3265      C3266   1.414       .  A
C3265      F3272   1.357       .  S
C3266      C3267   1.407       .  A
C3266      H3271   1.083       .  S
C3267      C3268   1.424       .  A
C3268      F3269   1.358       .  S
C3273      C3274   1.408       .  A
C3273      C3278   1.394       .  A
C3273      H3280   1.070       .  S
C3274      C3275   1.399       .  A
C3275      C3276   1.383       .  A
C3275      F3282   1.358       .  S
C3276      C3277   1.402       .  A
C3276      H3281   1.083       .  S
C3277      C3278   1.396       .  A
C3278      F3279   1.358       .  S
C3283      C3284   1.400       .  A
C3283      C3288   1.378       .  A
C3283      H3290   1.065       .  S
C3284      C3285   1.393       .  A
C3285      C3286   1.386       .  A
C3285      F3292   1.358       .  S
C3286      C3287   1.405       .  A
C3286      H3291   1.082       .  S
C3287      C3288   1.392       .  A
C3288      F3289   1.358       .  S
C3293      C3294   1.405       .  A
C3293      C3298   1.413       .  A
C3293      H3300   1.083       .  S
C3294      C3295   1.422       .  A
C3295      C3296   1.405       .  A
C3295      F3302   1.358       .  S
C3296      C3297   1.402       .  A
C3296      H3301   1.084       .  S
C3297      C3298   1.420       .  A
C3298      F3299   1.357       .  S
C3303      C3304   1.402       .  A
C3303      C3308   1.385       .  A
C3303      H3310   1.084       .  S
C3304      C3305   1.403       .  A
C3305      C3306   1.395       .  A
C3305      F3312   1.357       .  S
C3306      C3307   1.400       .  A
C3306      H3311   1.083       .  S
C3307      C3308   1.397       .  A
C3308      F3309   1.358       .  S
C3313      C3314   1.410       .  A
C3313      C3318   1.419       .  A
C3313      H3320   1.083       .  S
C3314      C3315   1.419       .  A
C3315      C3316   1.401       .  A
C3315      F3322   1.358       .  S
C3316      C3317   1.402       .  A
C3316      H3321   1.084       .  S
C3317      C3318   1.417       .  A
C3318      F3319   1.357       .  S
C3323      C3324   1.415       .  A
C3323      C3328   1.415       .  A
C3323      H3330   1.083       .  S
C3324      C3325   1.409       .  A
C3325      C3326   1.420       .  A
C3325      F3332   1.357       .  S
C3326      C3327   1.419       .  A
C3326      H3331   1.083       .  S
C3327      C3328   1.412       .  A
C3328      F3329   1.357       .  S
C3333      C3334   1.399       .  A
C3333      C3338   1.394       .  A
C3333      H3340   1.083       .  S
C3334      C3335   1.407       .  A
C3335      C3336   1.386       .  A
C3335      F3342   1.358       .  S
C3336      C3337   1.396       .  A
C3336      H3341   1.084       .  S
C3337      C3338   1.405       .  A
C3338      F3339   1.358       .  S
C3343      C3344   1.394       .  A
C3343      C3348   1.378       .  A
C3343      H3350   1.084       .  S
C3344      C3345   1.410       .  A
C3345      C3346   1.389       .  A
C3345      F3352   1.357       .  S
C3346      C3347   1.394       .  A
C3346      H3351   1.084       .  S
C3347      C3348   1.404       .  A
C3348      F3349   1.356       .  S
C3353      C3354   1.402       .  A
C3353      C3358   1.384       .  A
C3353      H3360   1.085       .  S
C3354      C3355   1.396       .  A
C3355      C3356   1.392       .  A
C3355      F3362   1.357       .  S
C3356      C3357   1.407       .  A
C3356      H3361   1.083       .  S
C3357      C3358   1.400       .  A
C3358      F3359   1.358       .  S
C3363      C3364   1.414       .  A
C3363      C3368   1.404       .  A
C3363      H3370   1.083       .  S
C3364      C3365   1.408       .  A
C3365      C3366   1.412       .  A
C3365      F3372   1.357       .  S
C3366      C3367   1.416       .  A
C3366      H3371   1.083       .  S
C3367      C3368   1.406       .  A
C3368      F3369   1.357       .  S
C3373      C3374   1.397       .  A
C3373      C3378   1.405       .  A
C3373      H3380   1.083       .  S
C3374      C3375   1.425       .  A
C3375      C3376   1.401       .  A
C3375      F3382   1.358       .  S
C3376      C3377   1.395       .  A
C3376      H3381   1.083       .  S
C3377      C3378   1.425       .  A
C3378      F3379   1.358       .  S
C3383      C3384   1.405       .  A
C3383      C3388   1.415       .  A
C3383      H3390   1.083       .  S
C3384      C3385   1.428       .  A
C3385      C3386   1.400       .  A
C3385      F3392   1.358       .  S
C3386      C3387   1.396       .  A
C3386      H3391   1.084       .  S
C3387      C3388   1.420       .  A
C3388      F3389   1.357       .  S
C3393      C3394   1.405       .  A
C3393      C3398   1.413       .  A
C3393      H3400   1.083       .  S
C3394      C3395   1.420       .  A
C3395      C3396   1.416       .  A
C3395      F3402   1.357       .  S
C3396      C3397   1.406       .  A
C3396      H3401   1.083       .  S
C3397      C3398   1.421       .  A
C3398      F3399   1.357       .  S
C3403      C3404   1.394       .  A
C3403      C3408   1.399       .  A
C3403      H3410   1.084       .  S
C3404      C3405   1.422       .  A
C3405      C3406   1.419       .  A
C3405      F3412   1.357       .  S
C3406      C3407   1.405       .  A
C3406      H3411   1.083       .  S
C3407      C3408   1.428       .  A
C3408      F3409   1.358       .  S
C3413      C3414   1.417       .  A
C3413      C3418   1.392       .  A
C3413      H3420   1.083       .  S
C3414      C3415   1.408       .  A
C3415      C3416   1.418       .  A
C3415      F3422   1.356       .  S
C3416      C3417   1.418       .  A
C3416      H3421   1.083       .  S
C3417      C3418   1.400       .  A
C3418      F3419   1.358       .  S
C3423      C3424   1.405       .  A
C3423      C3428   1.416       .  A
C3423      H3430   1.083       .  S
C3424      C3425   1.428       .  A
C3425      C3426   1.396       .  A
C3425      F3432   1.358       .  S
C3426      C3427   1.393       .  A
C3426      H3431   1.084       .  S
C3427      C3428   1.420       .  A
C3428      F3429   1.357       .  S
C3433      C3434   1.406       .  A
C3433      C3438   1.407       .  A
C3433      H3440   1.083       .  S
C3434      C3435   1.420       .  A
C3435      C3436   1.414       .  A
C3435      F3442   1.357       .  S
C3436      C3437   1.405       .  A
C3436      H3441   1.083       .  S
C3437      C3438   1.415       .  A
C3438      F3439   1.358       .  S
C3443      C3444   1.408       .  A
C3443      C3448   1.418       .  A
C3443      H3450   1.084       .  S
C3444      C3445   1.418       .  A
C3445      C3446   1.407       .  A
C3445      F3452   1.358       .  S
C3446      C3447   1.403       .  A
C3446      H3451   1.084       .  S
C3447      C3448   1.420       .  A
C3448      F3449   1.357       .  S
C3453      C3454   1.401       .  A
C3453      C3458   1.383       .  A
C3453      H3460   1.083       .  S
C3454      C3455   1.412       .  A
C3455      C3456   1.386       .  A
C3455      F3462   1.357       .  S
C3456      C3457   1.391       .  A
C3456      H3461   1.084       .  S
C3457      C3458   1.398       .  A
C3458      F3459   1.358       .  S
C3463      C3464   1.393       .  A
C3463      C3468   1.390       .  A
C3463      H3470   1.084       .  S
C3464      C3465   1.404       .  A
C3465      C3466   1.386       .  A
C3465      F3472   1.358       .  S
C3466      C3467   1.394       .  A
C3466      H3471   1.084       .  S
C3467      C3468   1.406       .  A
C3468      F3469   1.358       .  S
C3473      C3474   1.420       .  A
C3473      C3478   1.417       .  A
C3473      H3480   1.083       .  S
C3474      C3475   1.406       .  A
C3475      C3476   1.411       .  A
C3475      F3482   1.357       .  S
C3476      C3477   1.418       .  A
C3476      H3481   1.083       .  S
C3477      C3478   1.408       .  A
C3478      F3479   1.357       .  S
C3483      C3484   1.419       .  A
C3483      C3488   1.420       .  A
C3483      H3490   1.083       .  S
C3484      C3485   1.406       .  A
C3485      C3486   1.402       .  A
C3485      F3492   1.357       .  S
C3486      C3487   1.415       .  A
C3486      H3491   1.083       .  S
C3487      C3488   1.410       .  A
C3488      F3489   1.357       .  S
C3493      C3494   1.394       .  A
C3493      C3498   1.384       .  A
C3493      H3500   1.084       .  S
C3494      C3495   1.402       .  A
C3495      C3496   1.390       .  A
C3495      F3502   1.358       .  S
C3496      C3497   1.398       .  A
C3496      H3501   1.083       .  S
C3497      C3498   1.407       .  A
C3498      F3499   1.358       .  S
C3503      C3504   1.405       .  A
C3503      C3508   1.397       .  A
C3503      H3510   1.084       .  S
C3504      C3505   1.398       .  A
C3505      C3506   1.383       .  A
C3505      F3512   1.358       .  S
C3506      C3507   1.400       .  A
C3506      H3511   1.086       .  S
C3507      C3508   1.400       .  A
C3508      F3509   1.357       .  S
C3513      C3514   1.421       .  A
C3513      C3518   1.405       .  A
C3513      H3520   1.082       .  S
C3514      C3515   1.407       .  A
C3515      C3516   1.420       .  A
C3515      F3522   1.356       .  S
C3516      C3517   1.421       .  A
C3516      H3521   1.082       .  S
C3517      C3518   1.405       .  A
C3518      F3519   1.358       .  S
C3523      C3524   1.407       .  A
C3523      C3528   1.417       .  A
C3523      H3530   1.084       .  S
C3524      C3525   1.418       .  A
C3525      C3526   1.415       .  A
C3525      F3532   1.357       .  S
C3526      C3527   1.408       .  A
C3526      H3531   1.083       .  S
C3527      C3528   1.422       .  A
C3528      F3529   1.357       .  S
C3533      C3534   1.400       .  A
C3533      C3538   1.377       .  A
C3533      H3540   1.085   1_565  S
C3534      C3535   1.395       .  A
C3535      C3536   1.390       .  A
C3535      F3542   1.358       .  S
C3536      C3537   1.407       .  A
C3536      H3541   1.085       .  S
C3537      C3538   1.395       .  A
C3538      F3539   1.358       .  S
C3543      C3544   1.401       .  A
C3543      C3548   1.384       .  A
C3543      H3550   1.084       .  S
C3544      C3545   1.407       .  A
C3545      C3546   1.385       .  A
C3545      F3552   1.357       .  S
C3546      C3547   1.392       .  A
C3546      H3551   1.084       .  S
C3547      C3548   1.399       .  A
C3548      F3549   1.359       .  S
C3553      C3554   1.402       .  A
C3553      C3558   1.402       .  A
C3553      H3560   1.084       .  S
C3554      C3555   1.421       .  A
C3555      C3556   1.421       .  A
C3555      F3562   1.357       .  S
C3556      C3557   1.410       .  A
C3556      H3561   1.083       .  S
C3557      C3558   1.422       .  A
C3558      F3559   1.358       .  S
C3563      C3564   1.394       .  A
C3563      C3568   1.388       .  A
C3563      H3570   1.084       .  S
C3564      C3565   1.406       .  A
C3565      C3566   1.395       .  A
C3565      F3572   1.357       .  S
C3566      C3567   1.396       .  A
C3566      H3571   1.083       .  S
C3567      C3568   1.408       .  A
C3568      F3569   1.358       .  S
C3573      C3574   1.416       .  A
C3573      C3578   1.407       .  A
C3573      H3580   1.083       .  S
C3574      C3575   1.410       .  A
C3575      C3576   1.421       .  A
C3575      F3582   1.357       .  S
C3576      C3577   1.420       .  A
C3576      H3581   1.082       .  S
C3577      C3578   1.406       .  A
C3578      F3579   1.357       .  S
C3583      C3584   1.410       .  A
C3583      C3588   1.394       .  A
C3583      H3590   1.088       .  S
C3584      C3585   1.409       .  A
C3585      C3586   1.420       .  A
C3585      F3592   1.357       .  S
C3586      C3587   1.418       .  A
C3586      H3591   1.085       .  S
C3587      C3588   1.405       .  A
C3588      F3589   1.358       .  S
C3593      C3594   1.416       .  A
C3593      C3598   1.404       .  A
C3593      H3600   1.083       .  S
C3594      C3595   1.410       .  A
C3595      C3596   1.418       .  A
C3595      F3602   1.356       .  S
C3596      C3597   1.418       .  A
C3596      H3601   1.083       .  S
C3597      C3598   1.408       .  A
C3598      F3599   1.358       .  S
C3603      C3604   1.399       .  A
C3603      C3608   1.399       .  A
C3603      H3610   1.083       .  S
C3604      C3605   1.409       .  A
C3605      C3606   1.384       .  A
C3605      F3612   1.358       .  S
C3606      C3607   1.393       .  A
C3606      H3611   1.084       .  S
C3607      C3608   1.406       .  A
C3608      F3609   1.357       .  S
C3613      C3614   1.414       .  A
C3613      C3618   1.396       .  A
C3613      H3620   1.081       .  S
C3614      C3615   1.408       .  A
C3615      C3616   1.421       .  A
C3615      F3622   1.356       .  S
C3616      C3617   1.419       .  A
C3616      H3621   1.082       .  S
C3617      C3618   1.405       .  A
C3618      F3619   1.358       .  S
C3623      C3624   1.407       .  A
C3623      C3628   1.391       .  A
C3623      H3630   1.085       .  S
C3624      C3625   1.396       .  A
C3625      C3626   1.383       .  A
C3625      F3632   1.358       .  S
C3626      C3627   1.403       .  A
C3626      H3631   1.084       .  S
C3627      C3628   1.396       .  A
C3628      F3629   1.358       .  S
C3633      C3634   1.393       .  A
C3633      C3638   1.384       .  A
C3633      H3640   1.084       .  S
C3634      C3635   1.405       .  A
C3635      C3636   1.394       .  A
C3635      F3642   1.357       .  S
C3636      C3637   1.397       .  A
C3636      H3641   1.083       .  S
C3637      C3638   1.408       .  A
C3638      F3639   1.359       .  S
C3643      C3644   1.405       .  A
C3643      C3648   1.414       .  A
C3643      H3650   1.083       .  S
C3644      C3645   1.419       .  A
C3645      C3646   1.413       .  A
C3645      F3652   1.357       .  S
C3646      C3647   1.405       .  A
C3646      H3651   1.083       .  S
C3647      C3648   1.420       .  A
C3648      F3649   1.356       .  S
C3653      C3654   1.415       .  A
C3653      C3658   1.415       .  A
C3653      H3660   1.082       .  S
C3654      C3655   1.408       .  A
C3655      C3656   1.406       .  A
C3655      F3662   1.357       .  S
C3656      C3657   1.415       .  A
C3656      H3661   1.083       .  S
C3657      C3658   1.409       .  A
C3658      F3659   1.357       .  S
C3663      C3664   1.420       .  A
C3663      C3668   1.418       .  A
C3663      H3670   1.083       .  S
C3664      C3665   1.401       .  A
C3665      C3666   1.396       .  A
C3665      F3672   1.358       .  S
C3666      C3667   1.418       .  A
C3666      H3671   1.082       .  S
C3667      C3668   1.407       .  A
C3668      F3669   1.357       .  S
C3673      C3674   1.404       .  A
C3673      C3678   1.406       .  A
C3673      H3680   1.084       .  S
C3674      C3675   1.420       .  A
C3675      C3676   1.418       .  A
C3675      F3682   1.357       .  S
C3676      C3677   1.409       .  A
C3676      H3681   1.083       .  S
C3677      C3678   1.421       .  A
C3678      F3679   1.358       .  S
C3683      C3684   1.401       .  A
C3683      C3688   1.382       .  A
C3683      H3690   1.085       .  S
C3684      C3685   1.396       .  A
C3685      C3686   1.392       .  A
C3685      F3692   1.357       .  S
C3686      C3687   1.405       .  A
C3686      H3691   1.084       .  S
C3687      C3688   1.399       .  A
C3688      F3689   1.358       .  S
C3693      C3694   1.421       .  A
C3693      C3698   1.420       .  A
C3693      H3700   1.082       .  S
C3694      C3695   1.402       .  A
C3695      C3696   1.396       .  A
C3695      F3702   1.358       .  S
C3696      C3697   1.418       .  A
C3696      H3701   1.082       .  S
C3697      C3698   1.406       .  A
C3698      F3699   1.356       .  S
C3703      C3704   1.421       .  A
C3703      C3708   1.402       .  A
C3703      H3710   1.082       .  S
C3704      C3705   1.403       .  A
C3705      C3706   1.409       .  A
C3705      F3712   1.357       .  S
C3706      C3707   1.418       .  A
C3706      H3711   1.083       .  S
C3707      C3708   1.398       .  A
C3708      F3709   1.357       .  S
C3713      C3714   1.416       .  A
C3713      C3718   1.402       .  A
C3713      H3720   1.083       .  S
C3714      C3715   1.409       .  A
C3715      C3716   1.417       .  A
C3715      F3722   1.357       .  S
C3716      C3717   1.417       .  A
C3716      H3721   1.083       .  S
C3717      C3718   1.405       .  A
C3718      F3719   1.357       .  S
C3723      C3724   1.418       .  A
C3723      C3728   1.418       .  A
C3723      H3730   1.083       .  S
C3724      C3725   1.411       .  A
C3725      C3726   1.414       .  A
C3725      F3732   1.357       .  S
C3726      C3727   1.413       .  A
C3726      H3731   1.083       .  S
C3727      C3728   1.410       .  A
C3728      F3729   1.357       .  S
C3733      C3734   1.394       .  A
C3733      C3738   1.385       .  A
C3733      H3740   1.085       .  S
C3734      C3735   1.403       .  A
C3735      C3736   1.388       .  A
C3735      F3742   1.358       .  S
C3736      C3737   1.394       .  A
C3736      H3741   1.084       .  S
C3737      C3738   1.402       .  A
C3738      F3739   1.358       .  S
C3743      C3744   1.402       .  A
C3743      C3748   1.384       .  A
C3743      H3750   1.085       .  S
C3744      C3745   1.396       .  A
C3745      C3746   1.393       .  A
C3745      F3752   1.357       .  S
C3746      C3747   1.407       .  A
C3746      H3751   1.083       .  S
C3747      C3748   1.399       .  A
C3748      F3749   1.358       .  S
C3753      C3754   1.408       .  A
C3753      C3758   1.417       .  A
C3753      H3760   1.083       .  S
C3754      C3755   1.421       .  A
C3755      C3756   1.413       .  A
C3755      F3762   1.357       .  S
C3756      C3757   1.405       .  A
C3756      H3761   1.083       .  S
C3757      C3758   1.419       .  A
C3758      F3759   1.357       .  S
C3763      C3764   1.410       .  A
C3763      C3768   1.420       .  A
C3763      H3770   1.083       .  S
C3764      C3765   1.420       .  A
C3765      C3766   1.409       .  A
C3765      F3772   1.358       .  S
C3766      C3767   1.403       .  A
C3766      H3771   1.083       .  S
C3767      C3768   1.419       .  A
C3768      F3769   1.357       .  S
C3773      C3774   1.396       .  A
C3773      C3778   1.381       .  A
C3773      H3780   1.084       .  S
C3774      C3775   1.413       .  A
C3775      C3776   1.386       .  A
C3775      F3782   1.358       .  S
C3776      C3777   1.391       .  A
C3776      H3781   1.084       .  S
C3777      C3778   1.404       .  A
C3778      F3779   1.359       .  S
C3783      C3784   1.405       .  A
C3783      C3788   1.384       .  A
C3783      H3790   1.083       .  S
C3784      C3785   1.397       .  A
C3785      C3786   1.396       .  A
C3785      F3792   1.357       .  S
C3786      C3787   1.410       .  A
C3786      H3791   1.083       .  S
C3787      C3788   1.398       .  A
C3788      F3789   1.358       .  S
C3793      C3794   1.403       .  A
C3793      C3798   1.409       .  A
C3793      H3800   1.084       .  S
C3794      C3795   1.423       .  A
C3795      C3796   1.422       .  A
C3795      F3802   1.357       .  S
C3796      C3797   1.409       .  A
C3796      H3801   1.083       .  S
C3797      C3798   1.424       .  A
C3798      F3799   1.358       .  S
C3803      C3804   1.417       .  A
C3803      C3808   1.415       .  A
C3803      H3810   1.083       .  S
C3804      C3805   1.411       .  A
C3805      C3806   1.417       .  A
C3805      F3812   1.357       .  S
C3806      C3807   1.415       .  A
C3806      H3811   1.084       .  S
C3807      C3808   1.410       .  A
C3808      F3809   1.357       .  S
C3813      C3814   1.403       .  A
C3813      C3818   1.390       .  A
C3813      H3820   1.086       .  S
C3814      C3815   1.396       .  A
C3815      C3816   1.384       .  A
C3815      F3822   1.358       .  S
C3816      C3817   1.400       .  A
C3816      H3821   1.085       .  S
C3817      C3818   1.395       .  A
C3818      F3819   1.358       .  S
C3823      C3824   1.394       .  A
C3823      C3828   1.382       .  A
C3823      H3830   1.084       .  S
C3824      C3825   1.402       .  A
C3825      C3826   1.387       .  A
C3825      F3832   1.359       .  S
C3826      C3827   1.398       .  A
C3826      H3831   1.084       .  S
C3827      C3828   1.402       .  A
C3828      F3829   1.356       .  S
C3833      C3834   1.401       .  A
C3833      C3838   1.405       .  A
C3833      H3840   1.084       .  S
C3834      C3835   1.423       .  A
C3835      C3836   1.421       .  A
C3835      F3842   1.357       .  S
C3836      C3837   1.408       .  A
C3836      H3841   1.083       .  S
C3837      C3838   1.424       .  A
C3838      F3839   1.358       .  S
C3843      C3844   1.416       .  A
C3843      C3848   1.408       .  A
C3843      H3850   1.083       .  S
C3844      C3845   1.406       .  A
C3845      C3846   1.411       .  A
C3845      F3852   1.357       .  S
C3846      C3847   1.417       .  A
C3846      H3851   1.083       .  S
C3847      C3848   1.406       .  A
C3848      F3849   1.357       .  S
C3853      C3854   1.401       .  A
C3853      C3858   1.382       .  A
C3853      H3860   1.084       .  S
C3854      C3855   1.408       .  A
C3855      C3856   1.386       .  A
C3855      F3862   1.357       .  S
C3856      C3857   1.392       .  A
C3856      H3861   1.084       .  S
C3857      C3858   1.397       .  A
C3858      F3859   1.358       .  S
C3863      C3864   1.401       .  A
C3863      C3868   1.386       .  A
C3863      H3870   1.084   1_455  S
C3864      C3865   1.397       .  A
C3865      C3866   1.393       .  A
C3865      F3872   1.357       .  S
C3866      C3867   1.405       .  A
C3866      H3871   1.085       .  S
C3867      C3868   1.397       .  A
C3868      F3869   1.358       .  S
C3873      C3874   1.408       .  A
C3873      C3878   1.416       .  A
C3873      H3880   1.083       .  S
C3874      C3875   1.421       .  A
C3875      C3876   1.407       .  A
C3875      F3882   1.357       .  S
C3876      C3877   1.404       .  A
C3876      H3881   1.084       .  S
C3877      C3878   1.420       .  A
C3878      F3879   1.357       .  S
C3883      C3884   1.409       .  A
C3883      C3888   1.423       .  A
C3883      H3890   1.083       .  S
C3884      C3885   1.426       .  A
C3885      C3886   1.406       .  A
C3885      F3892   1.358       .  S
C3886      C3887   1.401       .  A
C3886      H3891   1.084       .  S
C3887      C3888   1.423       .  A
C3888      F3889   1.357       .  S
C3893      C3894   1.405       .  A
C3893      C3898   1.384       .  A
C3893      H3900   1.082       .  S
C3894      C3895   1.401       .  A
C3895      C3896   1.386       .  A
C3895      F3902   1.358       .  S
C3896      C3897   1.399       .  A
C3896      H3901   1.084       .  S
C3897      C3898   1.393       .  A
C3898      F3899   1.358       .  S
C3903      C3904   1.403       .  A
C3903      C3908   1.380       .  A
C3903      H3910   1.082   1_455  S
C3904      C3905   1.395       .  A
C3905      C3906   1.393       .  A
C3905      F3912   1.357       .  S
C3906      C3907   1.410       .  A
C3906      H3911   1.083       .  S
C3907      C3908   1.395       .  A
C3908      F3909   1.358       .  S
C3913      C3914   1.414       .  A
C3913      C3918   1.409       .  A
C3913      H3920   1.082       .  S
C3914      C3915   1.408       .  A
C3915      C3916   1.410       .  A
C3915      F3922   1.357       .  S
C3916      C3917   1.413       .  A
C3916      H3921   1.083       .  S
C3917      C3918   1.408       .  A
C3918      F3919   1.357       .  S
C3923      C3924   1.417       .  A
C3923      C3928   1.407       .  A
C3923      H3930   1.083       .  S
C3924      C3925   1.410       .  A
C3925      C3926   1.417       .  A
C3925      F3932   1.356       .  S
C3926      C3927   1.417       .  A
C3926      H3931   1.083       .  S
C3927      C3928   1.407       .  A
C3928      F3929   1.357       .  S
C3933      C3934   1.401       .  A
C3933      C3938   1.386       .  A
C3933      H3940   1.084       .  S
C3934      C3935   1.398       .  A
C3935      C3936   1.386   1_565  A
C3935      F3942   1.358   1_565  S
C3936      C3937   1.399   1_545  A
C3936      H3941   1.083       .  S
C3937      C3938   1.398       .  A
C3938      F3939   1.358       .  S
C3943      C3944   1.394       .  A
C3943      C3948   1.389       .  A
C3943      H3950   1.083       .  S
C3944      C3945   1.402       .  A
C3945      C3946   1.386       .  A
C3945      F3952   1.357       .  S
C3946      C3947   1.395       .  A
C3946      H3951   1.083       .  S
C3947      C3948   1.405       .  A
C3948      F3949   1.358       .  S
C3953      C3954   1.405       .  A
C3953      C3958   1.407       .  A
C3953      H3960   1.084       .  S
C3954      C3955   1.420       .  A
C3955      C3956   1.420       .  A
C3955      F3962   1.357       .  S
C3956      C3957   1.410       .  A
C3956      H3961   1.083       .  S
C3957      C3958   1.423       .  A
C3958      F3959   1.358       .  S
C3963      C3964   1.419       .  A
C3963      C3968   1.407       .  A
C3963      H3970   1.083       .  S
C3964      C3965   1.409       .  A
C3965      C3966   1.419       .  A
C3965      F3972   1.356       .  S
C3966      C3967   1.419       .  A
C3966      H3971   1.083       .  S
C3967      C3968   1.404       .  A
C3968      F3969   1.357       .  S
C3973      C3974   1.391       .  A
C3973      C3978   1.386       .  A
C3973      H3980   1.084       .  S
C3974      C3975   1.397       .  A
C3975      C3976   1.380       .  A
C3975      F3982   1.358       .  S
C3976      C3977   1.399       .  A
C3976      H3981   1.084       .  S
C3977      C3978   1.411       .  A
C3978      F3979   1.358       .  S
C3983      C3984   1.394       .  A
C3983      C3988   1.388       .  A
C3983      H3990   1.084       .  S
C3984      C3985   1.406       .  A
C3985      C3986   1.387       .  A
C3985      F3992   1.357       .  S
C3986      C3987   1.392       .  A
C3986      H3991   1.083       .  S
C3987      C3988   1.405       .  A
C3988      F3989   1.358       .  S
C3993      C3994   1.408       .  A
C3993      C3998   1.410       .  A
C3993      H4000   1.083       .  S
C3994      C3995   1.418       .  A
C3995      C3996   1.412       .  A
C3995      F4002   1.357       .  S
C3996      C3997   1.406       .  A
C3996      H4001   1.083       .  S
C3997      C3998   1.414       .  A
C3998      F3999   1.357       .  S
C4003      C4004   1.407       .  A
C4003      C4008   1.416       .  A
C4003      H4010   1.083       .  S
C4004      C4005   1.423       .  A
C4005      C4006   1.406       .  A
C4005      F4012   1.358       .  S
C4006      C4007   1.403       .  A
C4006      H4011   1.084       .  S
C4007      C4008   1.420       .  A
C4008      F4009   1.357       .  S
C4013      C4014   1.397       .  A
C4013      C4018   1.389       .  A
C4013      H4020   1.084       .  S
C4014      C4015   1.400       .  A
C4015      C4016   1.391       .  A
C4015      F4022   1.358       .  S
C4016      C4017   1.403       .  A
C4016      H4021   1.084       .  S
C4017      C4018   1.406       .  A
C4018      F4019   1.358       .  S
C4023      C4024   1.405       .  A
C4023      C4028   1.393       .  A
C4023      H4030   1.085       .  S
C4024      C4025   1.396       .  A
C4025      C4026   1.387       .  A
C4025      F4032   1.358       .  S
C4026      C4027   1.404       .  A
C4026      H4031   1.085       .  S
C4027      C4028   1.396       .  A
C4028      F4029   1.357       .  S
C4033      C4034   1.416       .  A
C4033      C4038   1.409       .  A
C4033      H4040   1.083       .  S
C4034      C4035   1.405       .  A
C4035      C4036   1.410       .  A
C4035      F4042   1.357       .  S
C4036      C4037   1.418       .  A
C4036      H4041   1.083       .  S
C4037      C4038   1.407       .  A
C4038      F4039   1.357       .  S
C4043      C4044   1.408       .  A
C4043      C4048   1.411       .  A
C4043      H4050   1.083       .  S
C4044      C4045   1.419       .  A
C4045      C4046   1.414       .  A
C4045      F4052   1.357       .  S
C4046      C4047   1.405       .  A
C4046      H4051   1.083       .  S
C4047      C4048   1.416       .  A
C4048      F4049   1.358       .  S
C4053      C4054   1.403       .  A
C4053      C4058   1.394       .  A
C4053      H4060   1.082   1_565  S
C4054      C4055   1.393       .  A
C4055      C4056   1.386       .  A
C4055      F4062   1.355       .  S
C4056      C4057   1.402       .  A
C4056      H4061   1.084       .  S
C4057      C4058   1.399       .  A
C4058      F4059   1.357       .  S
C4063      C4064   1.397       .  A
C4063      C4068   1.382       .  A
C4063      H4070   1.085       .  S
C4064      C4065   1.408       .  A
C4065      C4066   1.395       .  A
C4065      F4072   1.357       .  S
C4066      C4067   1.397       .  A
C4066      H4071   1.084       .  S
C4067      C4068   1.403       .  A
C4068      F4069   1.358       .  S
C4073      C4074   1.416       .  A
C4073      C4078   1.404       .  A
C4073      H4080   1.083       .  S
C4074      C4075   1.410       .  A
C4075      C4076   1.418       .  A
C4075      F4082   1.357       .  S
C4076      C4077   1.417       .  A
C4076      H4081   1.083       .  S
C4077      C4078   1.405       .  A
C4078      F4079   1.357       .  S
C4083      C4084   1.402       .  A
C4083      C4088   1.403       .  A
C4083      H4090   1.084       .  S
C4084      C4085   1.421       .  A
C4085      C4086   1.423       .  A
C4085      F4092   1.357       .  S
C4086      C4087   1.410       .  A
C4086      H4091   1.083       .  S
C4087      C4088   1.422       .  A
C4088      F4089   1.358       .  S
C4093      C4094   1.396       .  A
C4093      C4098   1.393       .  A
C4093      H4100   1.084       .  S
C4094      C4095   1.404       .  A
C4095      C4096   1.380       .  A
C4095      F4102   1.356       .  S
C4096      C4097   1.393       .  A
C4096      H4101   1.084       .  S
C4097      C4098   1.409       .  A
C4098      F4099   1.358       .  S
C4103      C4104   1.397       .  A
C4103      C4108   1.381       .  A
C4103      H4110   1.084       .  S
C4104      C4105   1.411       .  A
C4105      C4106   1.395       .  A
C4105      F4112   1.357       .  S
C4106      C4107   1.395       .  A
C4106      H4111   1.084       .  S
C4107      C4108   1.405       .  A
C4108      F4109   1.359       .  S
C4113      C4114   1.418       .  A
C4113      C4118   1.422       .  A
C4113      H4120   1.083       .  S
C4114      C4115   1.410       .  A
C4115      C4116   1.408       .  A
C4115      F4122   1.358       .  S
C4116      C4117   1.417       .  A
C4116      H4121   1.083       .  S
C4117      C4118   1.411       .  A
C4118      F4119   1.356       .  S
C4123      C4124   1.417       .  A
C4123      C4128   1.407       .  A
C4123      H4130   1.083       .  S
C4124      C4125   1.406       .  A
C4125      C4126   1.411       .  A
C4125      F4132   1.357       .  S
C4126      C4127   1.417       .  A
C4126      H4131   1.083       .  S
C4127      C4128   1.405       .  A
C4128      F4129   1.357       .  S
C4133      C4134   1.406       .  A
C4133      C4138   1.397       .  A
C4133      H4140   1.083       .  S
C4134      C4135   1.401       .  A
C4135      C4136   1.383       .  A
C4135      F4142   1.359       .  S
C4136      C4137   1.399       .  A
C4136      H4141   1.084       .  S
C4137      C4138   1.399       .  A
C4138      F4139   1.357       .  S
C4143      C4144   1.392       .  A
C4143      C4148   1.381       .  A
C4143      H4150   1.084       .  S
C4144      C4145   1.403       .  A
C4145      C4146   1.392       .  A
C4145      F4152   1.357       .  S
C4146      C4147   1.398       .  A
C4146      H4151   1.083       .  S
C4147      C4148   1.406       .  A
C4148      F4149   1.359       .  S
C4153      C4154   1.403       .  A
C4153      C4158   1.411       .  A
C4153      H4160   1.083       .  S
C4154      C4155   1.423       .  A
C4155      C4156   1.414       .  A
C4155      F4162   1.358       .  S
C4156      C4157   1.404       .  A
C4156      H4161   1.083       .  S
C4157      C4158   1.421       .  A
C4158      F4159   1.357       .  S
C4163      C4164   1.405       .  A
C4163      C4168   1.405       .  A
C4163      H4170   1.084       .  S
C4164      C4165   1.419       .  A
C4165      C4166   1.419       .  A
C4165      F4172   1.357       .  S
C4166      C4167   1.410       .  A
C4166      H4171   1.083       .  S
C4167      C4168   1.420       .  A
C4168      F4169   1.358       .  S
C4173      C4174   1.404       .  A
C4173      C4178   1.392       .  A
C4173      H4180   1.084       .  S
C4174      C4175   1.394       .  A
C4175      C4176   1.383       .  A
C4175      F4182   1.358       .  S
C4176      C4177   1.402       .  A
C4176      H4181   1.085       .  S
C4177      C4178   1.396       .  A
C4178      F4179   1.358       .  S
C4183      C4184   1.397       .  A
C4183      C4188   1.383       .  A
C4183      H4190   1.085       .  S
C4184      C4185   1.406       .  A
C4185      C4186   1.395       .  A
C4185      F4192   1.357       .  S
C4186      C4187   1.398       .  A
C4186      H4191   1.084       .  S
C4187      C4188   1.401       .  A
C4188      F4189   1.359       .  S
C4193      C4194   1.421       .  A
C4193      C4198   1.413       .  A
C4193      H4200   1.082       .  S
C4194      C4195   1.409       .  A
C4195      C4196   1.419       .  A
C4195      F4202   1.357       .  S
C4196      C4197   1.420       .  A
C4196      H4201   1.082       .  S
C4197      C4198   1.405       .  A
C4198      F4199   1.357       .  S
C4203      C4204   1.417       .  A
C4203      C4208   1.417       .  A
C4203      H4210   1.083       .  S
C4204      C4205   1.408       .  A
C4205      C4206   1.402       .  A
C4205      F4212   1.358       .  S
C4206      C4207   1.415       .  A
C4206      H4211   1.083       .  S
C4207      C4208   1.410       .  A
C4208      F4209   1.356       .  S
C4213      C4214   1.396       .  A
C4213      C4218   1.387       .  A
C4213      H4220   1.084       .  S
C4214      C4215   1.406       .  A
C4215      C4216   1.393       .  A
C4215      F4222   1.358       .  S
C4216      C4217   1.394       .  A
C4216      H4221   1.083       .  S
C4217      C4218   1.404       .  A
C4218      F4219   1.358       .  S
C4223      C4224   1.401       .  A
C4223      C4228   1.382       .  A
C4223      H4230   1.083       .  S
C4224      C4225   1.400       .  A
C4225      C4226   1.382       .  A
C4225      F4232   1.359       .  S
C4226      C4227   1.398       .  A
C4226      H4231   1.085       .  S
C4227      C4228   1.394       .  A
C4228      F4229   1.357       .  S
C4233      C4234   1.415       .  A
C4233      C4238   1.401       .  A
C4233      H4240   1.083       .  S
C4234      C4235   1.408       .  A
C4235      C4236   1.412       .  A
C4235      F4242   1.357       .  S
C4236      C4237   1.415       .  A
C4236      H4241   1.083       .  S
C4237      C4238   1.405       .  A
C4238      F4239   1.357       .  S
C4243      C4244   1.405       .  A
C4243      C4248   1.406       .  A
C4243      H4250   1.084       .  S
C4244      C4245   1.419       .  A
C4245      C4246   1.422       .  A
C4245      F4252   1.357       .  S
C4246      C4247   1.411       .  A
C4246      H4251   1.083       .  S
C4247      C4248   1.422       .  A
C4248      F4249   1.358       .  S
C4253      C4254   1.394       .  A
C4253      C4258   1.385       .  A
C4253      H4260   1.084       .  S
C4254      C4255   1.404       .  A
C4255      C4256   1.390       .  A
C4255      F4262   1.358       .  S
C4256      C4257   1.396       .  A
C4256      H4261   1.083       .  S
C4257      C4258   1.406       .  A
C4258      F4259   1.358       .  S
C4263      C4264   1.403       .  A
C4263      C4268   1.394       .  A
C4263      H4270   1.084   1_554  S
C4264      C4265   1.398       .  A
C4265      C4266   1.388       .  A
C4265      F4272   1.358       .  S
C4266      C4267   1.401       .  A
C4266      H4271   1.084       .  S
C4267      C4268   1.400       .  A
C4268      F4269   1.358       .  S
C4273      C4274   1.402       .  A
C4273      C4278   1.409       .  A
C4273      H4280   1.083       .  S
C4274      C4275   1.416       .  A
C4275      C4276   1.412       .  A
C4275      F4282   1.358       .  S
C4276      C4277   1.406       .  A
C4276      H4281   1.082       .  S
C4277      C4278   1.422       .  A
C4278      F4279   1.357       .  S
C4283      C4284   1.419       .  A
C4283      C4288   1.417       .  A
C4283      H4290   1.082       .  S
C4284      C4285   1.407       .  A
C4285      C4286   1.407       .  A
C4285      F4292   1.357       .  S
C4286      C4287   1.418       .  A
C4286      H4291   1.082       .  S
C4287      C4288   1.408       .  A
C4288      F4289   1.356       .  S
C4293      C4294   1.393       .  A
C4293      C4298   1.388       .  A
C4293      H4300   1.084       .  S
C4294      C4295   1.405       .  A
C4295      C4296   1.383       .  A
C4295      F4302   1.356       .  S
C4296      C4297   1.392       .  A
C4296      H4301   1.084       .  S
C4297      C4298   1.408       .  A
C4298      F4299   1.358       .  S
C4303      C4304   1.400       .  A
C4303      C4308   1.382       .  A
C4303      H4310   1.084       .  S
C4304      C4305   1.407       .  A
C4305      C4306   1.390       .  A
C4305      F4312   1.357       .  S
C4306      C4307   1.398       .  A
C4306      H4311   1.084       .  S
C4307      C4308   1.403       .  A
C4308      F4309   1.359       .  S
C4313      C4314   1.408       .  A
C4313      C4318   1.407       .  A
C4313      H4320   1.083       .  S
C4314      C4315   1.418       .  A
C4315      C4316   1.413       .  A
C4315      F4322   1.357       .  S
C4316      C4317   1.405       .  A
C4316      H4321   1.083       .  S
C4317      C4318   1.411       .  A
C4318      F4319   1.358       .  S
C4323      C4324   1.401       .  A
C4323      C4328   1.409       .  A
C4323      H4330   1.083       .  S
C4324      C4325   1.419       .  A
C4325      C4326   1.413       .  A
C4325      F4332   1.357       .  S
C4326      C4327   1.405       .  A
C4326      H4331   1.083       .  S
C4327      C4328   1.424       .  A
C4328      F4329   1.357       .  S
C4333      C4334   1.405       .  A
C4333      C4338   1.399       .  A
C4333      H4340   1.085       .  S
C4334      C4335   1.398       .  A
C4335      C4336   1.385       .  A
C4335      F4342   1.358       .  S
C4336      C4337   1.399       .  A
C4336      H4341   1.088       .  S
C4337      C4338   1.403       .  A
C4338      F4339   1.358       .  S
C4343      C4344   1.395       .  A
C4343      C4348   1.385       .  A
C4343      H4350   1.084       .  S
C4344      C4345   1.404       .  A
C4345      C4346   1.387       .  A
C4345      F4352   1.358       .  S
C4346      C4347   1.392       .  A
C4346      H4351   1.083       .  S
C4347      C4348   1.403       .  A
C4348      F4349   1.358       .  S
C4353      C4354   1.414       .  A
C4353      C4358   1.401       .  A
C4353      H4360   1.083       .  S
C4354      C4355   1.409       .  A
C4355      C4356   1.416       .  A
C4355      F4362   1.357       .  S
C4356      C4357   1.416       .  A
C4356      H4361   1.083       .  S
C4357      C4358   1.406       .  A
C4358      F4359   1.357       .  S
C4363      C4364   1.415       .  A
C4363      C4368   1.401       .  A
C4363      H4370   1.083       .  S
C4364      C4365   1.410       .  A
C4365      C4366   1.417       .  A
C4365      F4372   1.356       .  S
C4366      C4367   1.415       .  A
C4366      H4371   1.083       .  S
C4367      C4368   1.408       .  A
C4368      F4369   1.358       .  S
C4373      C4374   1.398       .  A
C4373      C4378   1.384       .  A
C4373      H4380   1.083       .  S
C4374      C4375   1.396       .  A
C4375      C4376   1.390       .  A
C4375      F4382   1.357       .  S
C4376      C4377   1.401       .  A
C4376      H4381   1.084       .  S
C4377      C4378   1.398       .  A
C4378      F4379   1.358       .  S
C4383      C4384   1.396       .  A
C4383      C4388   1.393       .  A
C4383      H4390   1.084       .  S
C4384      C4385   1.403       .  A
C4385      C4386   1.384       .  A
C4385      F4392   1.358       .  S
C4386      C4387   1.396       .  A
C4386      H4391   1.085       .  S
C4387      C4388   1.407       .  A
C4388      F4389   1.358       .  S
C4393      C4394   1.406       .  A
C4393      C4398   1.415       .  A
C4393      H4400   1.083       .  S
C4394      C4395   1.422       .  A
C4395      C4396   1.411       .  A
C4395      F4402   1.358       .  S
C4396      C4397   1.404       .  A
C4396      H4401   1.084       .  S
C4397      C4398   1.420       .  A
C4398      F4399   1.357       .  S
C4403      C4404   1.410       .  A
C4403      C4408   1.412       .  A
C4403      H4410   1.084       .  S
C4404      C4405   1.417       .  A
C4405      C4406   1.415       .  A
C4405      F4412   1.357       .  S
C4406      C4407   1.409       .  A
C4406      H4411   1.084       .  S
C4407      C4408   1.415       .  A
C4408      F4409   1.357       .  S
C4413      C4414   1.405       .  A
C4413      C4418   1.392       .  A
C4413      H4420   1.084       .  S
C4414      C4415   1.395       .  A
C4415      C4416   1.386       .  A
C4415      F4422   1.358       .  S
C4416      C4417   1.404       .  A
C4416      H4421   1.084       .  S
C4417      C4418   1.397       .  A
C4418      F4419   1.358       .  S
C4423      C4424   1.396       .  A
C4423      C4428   1.391       .  A
C4423      H4430   1.084       .  S
C4424      C4425   1.402       .  A
C4425      C4426   1.392       .  A
C4425      F4432   1.358       .  S
C4426      C4427   1.399       .  A
C4426      H4431   1.084       .  S
C4427      C4428   1.403       .  A
C4428      F4429   1.355       .  S
C4433      C4434   1.406       .  A
C4433      C4438   1.411       .  A
C4433      H4440   1.083       .  S
C4434      C4435   1.423       .  A
C4435      C4436   1.412       .  A
C4435      F4442   1.358       .  S
C4436      C4437   1.403       .  A
C4436      H4441   1.084       .  S
C4437      C4438   1.416       .  A
C4438      F4439   1.357       .  S
C4443      C4444   1.408       .  A
C4443      C4448   1.412       .  A
C4443      H4450   1.083       .  S
C4444      C4445   1.421       .  A
C4445      C4446   1.417       .  A
C4445      F4452   1.357       .  S
C4446      C4447   1.407       .  A
C4446      H4451   1.083       .  S
C4447      C4448   1.417       .  A
C4448      F4449   1.357       .  S
C4453      C4454   1.404       .  A
C4453      C4458   1.392       .  A
C4453      H4460   1.084       .  S
C4454      C4455   1.397       .  A
C4455      C4456   1.384       .  A
C4455      F4462   1.357       .  S
C4456      C4457   1.399       .  A
C4456      H4461   1.083       .  S
C4457      C4458   1.396       .  A
C4458      F4459   1.357       .  S
C4463      C4464   1.394       .  A
C4463      C4468   1.386       .  A
C4463      H4470   1.084       .  S
C4464      C4465   1.398       .  A
C4465      C4466   1.380       .  A
C4465      F4472   1.359       .  S
C4466      C4467   1.401       .  A
C4466      H4471   1.084       .  S
C4467      C4468   1.407       .  A
C4468      F4469   1.357       .  S
C4473      C4474   1.420       .  A
C4473      C4478   1.421       .  A
C4473      H4480   1.082       .  S
C4474      C4475   1.404       .  A
C4475      C4476   1.404       .  A
C4475      F4482   1.357       .  S
C4476      C4477   1.419       .  A
C4476      H4481   1.083       .  S
C4477      C4478   1.409       .  A
C4478      F4479   1.356       .  S
C4483      C4484   1.414       .  A
C4483      C4488   1.402       .  A
C4483      H4490   1.083       .  S
C4484      C4485   1.409       .  A
C4485      C4486   1.416       .  A
C4485      F4492   1.357       .  S
C4486      C4487   1.416       .  A
C4486      H4491   1.083       .  S
C4487      C4488   1.406       .  A
C4488      F4489   1.358       .  S
C4493      C4494   1.398       .  A
C4493      C4498   1.385       .  A
C4493      H4500   1.083       .  S
C4494      C4495   1.394       .  A
C4495      C4496   1.383       .  A
C4495      F4502   1.358       .  S
C4496      C4497   1.404       .  A
C4496      H4501   1.083       .  S
C4497      C4498   1.400       .  A
C4498      F4499   1.358       .  S
C4503      C4504   1.393       .  A
C4503      C4508   1.387       .  A
C4503      H4510   1.084       .  S
C4504      C4505   1.408       .  A
C4505      C4506   1.396       .  A
C4505      F4512   1.358       .  S
C4506      C4507   1.396       .  A
C4506      H4511   1.083       .  S
C4507      C4508   1.408       .  A
C4508      F4509   1.358       .  S
