geometry optimzed in LAMMPS
_audit_creation_date              2020-11-30 
_audit_creation_method            'lammps2cif' 
_symmetry_space_group_name_H-M    'P1' 
_symmetry_Int_Tables_number       1 
_symmetry_cell_setting            triclinic 
loop_ 
_symmetry_equiv_pos_as_xyz 
  x,y,z 
_cell_length_a                    35.0420654 
_cell_length_b                    35.06929059818953 
_cell_length_c                    46.592493519668814 
_cell_angle_alpha                 89.91131341003275 
_cell_angle_beta                  89.88427087877906 
_cell_angle_gamma                 89.75092514320764 
loop_ 
_atom_site_label 
_atom_site_type_symbol 
_atom_site_fract_x 
_atom_site_fract_y 
_atom_site_fract_z 
_atom_site_charge 
C1          C  0.77299208  0.21856932  0.00059226     0.80300
N2          N  0.78688150  0.20411935  0.47553946    -0.78000
C3          C  0.81467569  0.17699816  0.47585367     0.82800
N4          N  0.82900895  0.16461900  0.50122226    -0.77900
C5          C  0.81558206  0.17894185  0.02632342     0.82900
N6          N  0.78735110  0.20562268  0.02594318    -0.79600
C7          C  0.22767324  0.78925220  0.99943114     0.80300
N8          N  0.21444634  0.80388957  0.47422566    -0.78000
C9          C  0.18492853  0.82915531  0.47410136     0.82800
N10         N  0.16936238  0.83989851  0.99947103    -0.77900
C11         C  0.18239529  0.82611841  0.02478808     0.82900
N12         N  0.21145005  0.80041610  0.02463990    -0.79600
Zn13       Zn  0.52150642  0.47881858  0.03387662     1.49700
Zn14       Zn  0.51838558  0.47820510  0.46523043     1.49400
Zn15       Zn  0.44195399  0.49571531  0.00073335     1.49100
Zn16       Zn  0.51061132  0.55693177  0.00055081     1.49500
O17         O  0.49784814  0.50238214  0.00003241    -1.84000
O18         O  0.55952781  0.43834883  0.02261611    -0.74600
O19         O  0.47663658  0.45486815  0.44106631    -0.74500
O20         O  0.42621975  0.46504279  0.03598180    -0.74000
O21         O  0.55594037  0.43620897  0.47508974    -0.74700
O22         O  0.48121923  0.45365892  0.05841776    -0.74300
O23         O  0.42331980  0.46696433  0.46547505    -0.74800
O24         O  0.46302783  0.58918712  0.99934816    -0.74200
O25         O  0.54589234  0.51706934  0.44078218    -0.75000
O26         O  0.41521815  0.54756691  0.00095268    -0.74400
O27         O  0.54306230  0.57089635  0.46608789    -0.74800
O28         O  0.53862853  0.57207939  0.03678424    -0.74800
O29         O  0.54960675  0.51720395  0.05844833    -0.74500
C30         C  0.56979123  0.42413931  0.99869005     0.77200
C31         C  0.44056261  0.45271461  0.44387019     0.77700
C32         C  0.44508998  0.45035444  0.05666394     0.76700
C33         C  0.42752857  0.58175736  0.00000157     0.77100
C34         C  0.55380015  0.55222415  0.44403909     0.78200
C35         C  0.55307763  0.55328607  0.05750822     0.77300
C36         C  0.27382144  0.28363727  0.24967507     0.80300
N37         N  0.28720104  0.29886152  0.27466949    -0.78000
C38         C  0.31491324  0.32610543  0.27409110     0.82800
N39         N  0.32893045  0.33792066  0.24837298    -0.77900
C40         C  0.31582092  0.32290718  0.22346958     0.82900
N41         N  0.28829552  0.29581560  0.22415993    -0.79600
C42         C  0.72197485  0.72112200  0.25089764     0.80300
N43         N  0.71013202  0.70540579  0.27608641    -0.78000
C44         C  0.68155757  0.67925923  0.27625524     0.82800
N45         N  0.66507854  0.66893553  0.25108951    -0.77900
C46         C  0.67704185  0.68421419  0.22588450     0.82900
N47         N  0.70553305  0.71030743  0.22581908    -0.79600
Zn48       Zn  0.01888856  0.02504085  0.21628757     1.49700
Zn49       Zn  0.00828453  0.94658825  0.25000820     1.49400
Zn50       Zn  0.01901870  0.02478520  0.28491851     1.49100
Zn51       Zn  0.94117511  0.00853928  0.25060709     1.49500
O52         O  0.99679119  0.00138167  0.25056197    -1.84000
O53         O  0.04411455  0.98573278  0.19099039    -0.74600
O54         O  0.03575493  0.93045564  0.28561837    -0.74500
O55         O  0.05700147  0.06635480  0.27438990    -0.74000
O56         O  0.04243312  0.93287754  0.21679606    -0.74700
O57         O  0.05917997  0.06410892  0.22683612    -0.74300
O58         O  0.04677315  0.98486039  0.30868670    -0.74800
O59         O  0.92365245  0.03503921  0.28663163    -0.74200
O60         O  0.96030257  0.91486160  0.24748058    -0.75000
O61         O  0.97740291  0.04728842  0.31014604    -0.74400
O62         O  0.91365774  0.95807061  0.24895949    -0.74800
O63         O  0.92408678  0.03975065  0.21647606    -0.74800
O64         O  0.97805336  0.05057919  0.19251870    -0.74500
C65         C  0.05291914  0.95078751  0.19440839     0.77200
C66         C  0.04995443  0.94875762  0.30651106     0.77700
C67         C  0.07075151  0.07792631  0.25056105     0.76700
C68         C  0.94112468  0.04868637  0.30819859     0.77100
C69         C  0.92500296  0.92358617  0.24774010     0.78200
C70         C  0.94201248  0.05381644  0.19518438     0.77300
C71         C  0.75230891  0.75015984  0.25060087     0.01500
C72         C  0.79073613  0.73943173  0.25457659     0.04300
C73         C  0.81975006  0.76702735  0.25271227    -0.11800
C74         C  0.81031455  0.80557497  0.24755670     0.23600
C75         C  0.77180057  0.81630340  0.24391265    -0.12400
C76         C  0.74288588  0.78862747  0.24536066     0.05000
C77         C  0.84060360  0.83515139  0.24736725     0.27400
C78         C  0.85373745  0.85029317  0.27354277    -0.13000
C79         C  0.88156969  0.87908248  0.27356067     0.05500
C80         C  0.89638301  0.89290220  0.24744540    -0.09000
C81         C  0.88338033  0.87781220  0.22125219     0.06300
C82         C  0.85557738  0.84887800  0.22119561    -0.13400
Br83       Br  0.75874145  0.86905579  0.23718041    -0.05500
Br84       Br  0.80353215  0.68688130  0.26237438     0.00200
Br85       Br  0.89927830  0.89997253  0.30937521     0.00600
Br86       Br  0.83769979  0.82817980  0.18536373    -0.03800
Br87       Br  0.69009515  0.80350252  0.24128078     0.00700
Br88       Br  0.87251523  0.75217002  0.25691437    -0.03100
Br89       Br  0.83307901  0.83187496  0.30937301    -0.03900
Br90       Br  0.90323027  0.89746259  0.18555702     0.00000
C91         C  0.10105494  0.10783250  0.25039091     0.01500
C92         C  0.10023522  0.13773666  0.22988778     0.04300
C93         C  0.12943656  0.16531685  0.22929961    -0.11800
C94         C  0.15901090  0.16428980  0.24974211     0.23600
C95         C  0.15984497  0.13484857  0.27033928    -0.12400
C96         C  0.13140312  0.10646775  0.27046924     0.05000
C97         C  0.18871298  0.19471576  0.24994698     0.27400
C98         C  0.22508901  0.18794486  0.23792832    -0.13000
C99         C  0.25312500  0.21671951  0.23838861     0.05500
C100        C  0.24458932  0.25299012  0.25000823    -0.09000
C101        C  0.20761348  0.26013895  0.26084754     0.06300
C102        C  0.18021759  0.23083993  0.26162204    -0.13400
Br103      Br  0.20021035  0.13360780  0.29849457    -0.05500
Br104      Br  0.05805173  0.14289817  0.20349760     0.00200
Br105      Br  0.30341902  0.20609506  0.22334959     0.00600
Br106      Br  0.13071667  0.24020096  0.27852267    -0.03800
Br107      Br  0.13576794  0.06483544  0.29746028     0.00700
Br108      Br  0.12920436  0.20477496  0.20033913    -0.03100
Br109      Br  0.23611942  0.13936616  0.22031237    -0.03900
Br110      Br  0.19292672  0.31093488  0.27192320     0.00000
C111        C  0.42476869  0.42908075  0.07949158     0.01500
C112        C  0.40359856  0.39607354  0.07288967     0.04300
C113        C  0.38470978  0.37586293  0.09489248    -0.11800
C114        C  0.38806120  0.38777716  0.12364755     0.23600
C115        C  0.41020566  0.41996487  0.13032067    -0.12400
C116        C  0.42758386  0.44113110  0.10826770     0.05000
C117        C  0.36741732  0.36758947  0.14701689     0.27400
C118        C  0.33102355  0.38052833  0.15565943    -0.13000
C119        C  0.31342712  0.36487598  0.18016056     0.05500
C120        C  0.33197961  0.33596339  0.19589869    -0.09000
C121        C  0.36734915  0.32149121  0.18629753     0.06300
C122        C  0.38524981  0.33754269  0.16206113    -0.13400
Br123      Br  0.41696313  0.43476325  0.16987530    -0.05500
Br124      Br  0.40188499  0.37752349  0.03397158     0.00200
Br125      Br  0.26454283  0.38391689  0.19286592     0.00600
Br126      Br  0.43485992  0.31955822  0.15005503    -0.03800
Br127      Br  0.45298498  0.48815063  0.11739785     0.00700
Br128      Br  0.35431858  0.33179246  0.08586958    -0.03100
Br129      Br  0.30605285  0.42069026  0.13438866    -0.03900
Br130      Br  0.39118804  0.27963815  0.20635651     0.00000
C131        C  0.33109865  0.34227728  0.30106308     0.01500
C132        C  0.37110877  0.34249332  0.30529747     0.04300
C133        C  0.38696499  0.36070489  0.32939656    -0.11800
C134        C  0.36309331  0.37750247  0.35021601     0.23600
C135        C  0.32322326  0.37653851  0.34658330    -0.12400
C136        C  0.30731211  0.35969311  0.32187607     0.05000
C137        C  0.38024776  0.39704610  0.37544581     0.27400
C138        C  0.39398567  0.37558335  0.39892558    -0.13000
C139        C  0.41323994  0.39383576  0.42159673     0.05500
C140        C  0.41829742  0.43367695  0.42111863    -0.09000
C141        C  0.40364006  0.45519429  0.39805945     0.06300
C142        C  0.38477724  0.43698347  0.37524490    -0.13400
Br143      Br  0.29055479  0.39921347  0.37534188    -0.05500
Br144      Br  0.40477047  0.31679915  0.27877833     0.00200
Br145      Br  0.43355801  0.36427259  0.45300419     0.00600
Br146      Br  0.36611918  0.46660850  0.34323390    -0.03800
Br147      Br  0.25321120  0.36368671  0.31582172     0.00700
Br148      Br  0.44170137  0.36374559  0.33362308    -0.03100
Br149      Br  0.38686122  0.32108242  0.39965394    -0.03900
Br150      Br  0.41059861  0.50958459  0.39729949     0.00000
C151        C  0.66069971  0.67038616  0.19869491     0.01500
C152        C  0.68210722  0.64552952  0.18114774     0.04300
C153        C  0.66533794  0.62915619  0.15669799    -0.11800
C154        C  0.62682200  0.63682384  0.15009460     0.23600
C155        C  0.60566422  0.66239521  0.16728793    -0.12400
C156        C  0.62278600  0.67957275  0.19132871     0.05000
C157        C  0.60802061  0.61576575  0.12634694     0.27400
C158        C  0.60889671  0.63001573  0.09814997    -0.13000
C159        C  0.59225455  0.60918110  0.07553553     0.05500
C160        C  0.57359028  0.57394839  0.08109554    -0.09000
C161        C  0.57405274  0.55934194  0.10963563     0.06300
C162        C  0.59093735  0.58036374  0.13198647    -0.13400
Br163      Br  0.55284926  0.67259579  0.15849488    -0.05500
Br164      Br  0.73365660  0.63200634  0.19166056     0.00200
Br165      Br  0.59843361  0.62834789  0.03686194     0.00600
Br166      Br  0.59094390  0.56080381  0.17084174    -0.03800
Br167      Br  0.59463032  0.71599933  0.21411813     0.00700
Br168      Br  0.69456404  0.59499395  0.13272486    -0.03100
Br169      Br  0.63358319  0.67816945  0.09072768    -0.03900
Br170      Br  0.55198135  0.51066173  0.11942906     0.00000
C171        C  0.66874168  0.66126393  0.30342244     0.01500
C172        C  0.66779743  0.62107893  0.30577864     0.04300
C173        C  0.65256635  0.60374885  0.33052065    -0.11800
C174        C  0.63797180  0.62634411  0.35299162     0.23600
C175        C  0.64041249  0.66637820  0.35129678    -0.12400
C176        C  0.65562481  0.68386498  0.32654428     0.05000
C177        C  0.61658754  0.60807014  0.37689467     0.27400
C178        C  0.57776152  0.59905698  0.37304936    -0.13000
C179        C  0.55727572  0.58086650  0.39510729     0.05500
C180        C  0.57535905  0.57197330  0.42125773    -0.09000
C181        C  0.61401362  0.58145825  0.42533908     0.06300
C182        C  0.63472748  0.59919997  0.40307650    -0.13400
Br183      Br  0.62145383  0.69711176  0.38258822    -0.05500
Br184      Br  0.68756010  0.58940893  0.27523519     0.00200
Br185      Br  0.50409660  0.56883541  0.38977102     0.00600
Br186      Br  0.68802007  0.61075076  0.40811076    -0.03800
Br187      Br  0.65537022  0.73876604  0.32355159     0.00700
Br188      Br  0.65066813  0.54888505  0.33351595    -0.03100
Br189      Br  0.55272973  0.61166049  0.33737693    -0.03900
Br190      Br  0.63864915  0.56918488  0.46119120     0.00000
C191        C  0.07543180  0.93063164  0.17175766     0.01500
C192        C  0.10154622  0.95109667  0.15425013     0.04300
C193        C  0.11948523  0.93305119  0.13084152    -0.11800
C194        C  0.11449929  0.89375527  0.12625425     0.23600
C195        C  0.09117979  0.87254142  0.14491234    -0.12400
C196        C  0.07048903  0.89095659  0.16683868     0.05000
C197        C  0.13207979  0.87498557  0.10089407     0.27400
C198        C  0.10922439  0.86608922  0.07706221    -0.13000
C199        C  0.12518318  0.84732116  0.05325188     0.05500
C200        C  0.16501022  0.84016576  0.05198155    -0.09000
C201        C  0.18799760  0.84954861  0.07595815     0.06300
C202        C  0.17123842  0.86582775  0.10061772    -0.13400
Br203      Br  0.08720714  0.81800247  0.13981696    -0.05500
Br204      Br  0.11527337  0.00327387  0.16271267     0.00200
Br205      Br  0.09129290  0.82983903  0.02333413     0.00600
Br206      Br  0.20188776  0.87620634  0.13409176    -0.03800
Br207      Br  0.03367540  0.86119414  0.18816623     0.00700
Br208      Br  0.14996940  0.96244301  0.10428515    -0.03100
Br209      Br  0.05597378  0.88075233  0.07678063    -0.03900
Br210      Br  0.24277085  0.84308411  0.07497120     0.00000
C211        C  0.16839943  0.84450981  0.44690819     0.01500
C212        C  0.15352471  0.88227471  0.44623159     0.04300
C213        C  0.13332648  0.89540728  0.42214120    -0.11800
C214        C  0.12981683  0.87223564  0.39775467     0.23600
C215        C  0.14589071  0.83543546  0.39754919    -0.12400
C216        C  0.16445715  0.82114945  0.42219218     0.05000
C217        C  0.10970585  0.88758092  0.37226392     0.27400
C218        C  0.06962782  0.88538844  0.37058263    -0.13000
C219        C  0.05004850  0.90533282  0.34889528     0.05500
C220        C  0.07053185  0.92728652  0.32880589    -0.09000
C221        C  0.11067458  0.92805830  0.32970474     0.06300
C222        C  0.13026132  0.90824767  0.35144808    -0.13400
Br223      Br  0.14165794  0.80457780  0.36342963    -0.05500
Br224      Br  0.16191978  0.91784989  0.47729679     0.00200
Br225      Br  0.99508341  0.90403607  0.34741610     0.00600
Br226      Br  0.18520746  0.91004182  0.35330275    -0.03800
Br227      Br  0.18184070  0.76877495  0.42183766     0.00700
Br228      Br  0.10959608  0.94532871  0.42248111    -0.03100
Br229      Br  0.04166608  0.85606456  0.39860721    -0.03900
Br230      Br  0.13873046  0.95598532  0.30097992     0.00000
C231        C  0.40009178  0.61388948  0.99972366     0.01500
C232        C  0.39764766  0.63872303  0.02344541     0.04300
C233        C  0.37153116  0.66938679  0.02316187    -0.11800
C234        C  0.34756349  0.67513246  0.49925433     0.23600
C235        C  0.35074078  0.65094189  0.47524858    -0.12400
C236        C  0.37710944  0.62055983  0.47542516     0.05000
C237        C  0.31746284  0.70509820  0.99993649     0.27400
C238        C  0.28188516  0.69697539  0.01260480    -0.13000
C239        C  0.25248877  0.72441368  0.01225744     0.05500
C240        C  0.25863226  0.76041503  0.99947964    -0.08000
C241        C  0.29438033  0.76860981  0.48690229     0.06300
C242        C  0.32371028  0.74097041  0.48712808    -0.13400
Br243      Br  0.31863914  0.65943191  0.44221362    -0.05500
Br244      Br  0.42923718  0.62992239  0.05670434     0.00200
Br245      Br  0.20306799  0.71156456  0.02782688     0.00600
Br246      Br  0.37256676  0.75203120  0.46994465    -0.03800
Br247      Br  0.38286708  0.58906165  0.44191038     0.00700
Br248      Br  0.36819677  0.70346436  0.05552542    -0.03100
Br249      Br  0.27340738  0.64778041  0.03008696    -0.03900
Br250      Br  0.30377067  0.81810735  0.47021169     0.00000
C251        C  0.83159318  0.16500204  0.05374062     0.01500
C252        C  0.80814476  0.14589477  0.07373603     0.04300
C253        C  0.82434493  0.12922786  0.09841828    -0.11800
C254        C  0.86396654  0.13146184  0.10310027     0.23600
C255        C  0.88717710  0.15173207  0.08371917    -0.12400
C256        C  0.87102525  0.16863152  0.05917068     0.05000
C257        C  0.88175264  0.11088448  0.12751920     0.27400
C258        C  0.88673476  0.12924405  0.15412107    -0.13000
C259        C  0.90641712  0.11056549  0.17643399     0.05500
C260        C  0.92037224  0.07323985  0.17235895    -0.09000
C261        C  0.91418027  0.05439675  0.14611996     0.06300
C262        C  0.89521219  0.07331019  0.12363252    -0.13400
Br263      Br  0.94135580  0.15541837  0.09059949    -0.05500
Br264      Br  0.75425924  0.14036245  0.06651041     0.00200
Br265      Br  0.91573150  0.13656121  0.21211279     0.00600
Br266      Br  0.88806038  0.04805798  0.08728633    -0.03800
Br267      Br  0.90295106  0.19750841  0.03337139     0.00700
Br268      Br  0.79265961  0.10225029  0.12549393    -0.03100
Br269      Br  0.86684605  0.18004499  0.15972640    -0.03900
Br270      Br  0.93125123  0.00238845  0.14124503     0.00000
C271        C  0.91863552  0.06616781  0.33171414     0.01500
C272        C  0.89232885  0.09581112  0.32584542     0.04300
C273        C  0.87192391  0.11317092  0.34840201    -0.11800
C274        C  0.87743541  0.10081053  0.37684305     0.23600
C275        C  0.90215741  0.06997652  0.38260637    -0.12400
C276        C  0.92301982  0.05290811  0.36016312     0.05000
C277        C  0.85959043  0.12200839  0.40094764     0.27400
C278        C  0.87899795  0.15314289  0.41312636    -0.13000
C279        C  0.86335784  0.17232215  0.43690887     0.05500
C280        C  0.82869472  0.15991277  0.44895932    -0.09000
C281        C  0.80898805  0.12913343  0.43655101     0.06300
C282        C  0.82413133  0.11056163  0.41227413    -0.13400
Br283      Br  0.90721894  0.05123019  0.42138695    -0.05500
Br284      Br  0.88556130  0.11428306  0.28719031     0.00200
Br285      Br  0.88946571  0.21546892  0.45312791     0.00600
Br286      Br  0.79678454  0.06911674  0.39473456    -0.03800
Br287      Br  0.95670579  0.01058539  0.36844014     0.00700
Br288      Br  0.83673966  0.15437521  0.34062340    -0.03100
Br289      Br  0.92753256  0.16879639  0.39751316    -0.03900
Br290      Br  0.76222378  0.11128130  0.45369428     0.00000
C291        C  0.74243493  0.24820206  0.00032255     0.01500
C292        C  0.74550718  0.28103861  0.51784736     0.04300
C293        C  0.71641514  0.30888423  0.51771954    -0.11800
C294        C  0.68450081  0.30468683  0.99974520     0.23600
C295        C  0.68124307  0.27223008  0.98225106    -0.12400
C296        C  0.70988279  0.24393121  0.98262567     0.05000
C297        C  0.65455665  0.33477599  0.49898774     0.27400
C298        C  0.62283995  0.33257646  0.51749315    -0.13000
C299        C  0.59490589  0.36156371  0.51725480     0.05500
C300        C  0.59861142  0.39303586  0.99841276    -0.09000
C301        C  0.63039044  0.39494412  0.97970472     0.06300
C302        C  0.65815934  0.36580779  0.97997982    -0.13400
Br303      Br  0.63709582  0.26670060  0.95788568    -0.05500
Br304      Br  0.79037101  0.28966680  0.54095379     0.00200
Br305      Br  0.55092936  0.35700403  0.54210585     0.00600
Br306      Br  0.70161119  0.36837089  0.95453056    -0.03800
Br307      Br  0.70283714  0.19870855  0.95973488     0.00700
Br308      Br  0.72004457  0.35317567  0.54212043    -0.03100
Br309      Br  0.61786940  0.28957758  0.54312558    -0.03900
Br310      Br  0.63750104  0.43845423  0.95479447     0.00000
C311        C  0.77299145  0.21857078  0.50059287     0.80300
N312        N  0.78688118  0.20411766  0.97553867    -0.78000
C313        C  0.81467460  0.17699574  0.97585250     0.82800
N314        N  0.82900807  0.16461607  0.00122088    -0.77900
C315        C  0.81558194  0.17894439  0.52632462     0.82900
N316        N  0.78735023  0.20562446  0.52594401    -0.79600
C317        C  0.22766230  0.78924599  0.49942977     0.80300
N318        N  0.21445930  0.80389650  0.97422664    -0.78000
C319        C  0.18494177  0.82916270  0.97410157     0.82800
N320        N  0.16935096  0.83989159  0.49947134    -0.77900
C321        C  0.18238577  0.82611229  0.52478811     0.82900
N322        N  0.21144076  0.80041034  0.52463901    -0.79600
Zn323      Zn  0.52150227  0.47881978  0.53387633     1.49700
Zn324      Zn  0.51838833  0.47820539  0.96523037     1.49400
Zn325      Zn  0.44194977  0.49571424  0.50073138     1.49100
Zn326      Zn  0.51060531  0.55693219  0.50055014     1.49500
O327        O  0.49784384  0.50238218  0.50003176    -1.84000
O328        O  0.55952489  0.43835007  0.52261680    -0.74600
O329        O  0.47663780  0.45486831  0.94106767    -0.74500
O330        O  0.42621533  0.46504099  0.53597945    -0.74000
O331        O  0.55594288  0.43620871  0.97508902    -0.74700
O332        O  0.48121453  0.45366031  0.55841692    -0.74300
O333        O  0.42332223  0.46696462  0.96547794    -0.74800
O334        O  0.46302123  0.58918634  0.49934630    -0.74200
O335        O  0.54589507  0.51706955  0.94078135    -0.75000
O336        O  0.41521253  0.54756511  0.50095049    -0.74400
O337        O  0.54306820  0.57089578  0.96608809    -0.74800
O338        O  0.53862119  0.57208145  0.53678377    -0.74800
O339        O  0.54960097  0.51720643  0.55844819    -0.74500
C340        C  0.56978877  0.42414019  0.49869093     0.77200
C341        C  0.44056397  0.45271450  0.94387275     0.77700
C342        C  0.44508548  0.45035426  0.55666230     0.76700
C343        C  0.42752214  0.58175584  0.49999926     0.77100
C344        C  0.55380456  0.55222398  0.94403865     0.78200
C345        C  0.55307046  0.55328873  0.55750799     0.77300
C346        C  0.27382733  0.28363440  0.74967704     0.80300
N347        N  0.28720652  0.29885880  0.77467148    -0.78000
C348        C  0.31492004  0.32610137  0.77409333     0.82800
N349        N  0.32893918  0.33791515  0.74837535    -0.77900
C350        C  0.31582960  0.32290185  0.72347179     0.82900
N351        N  0.28830272  0.29581169  0.72416203    -0.79600
C352        C  0.72197376  0.72112403  0.75089408     0.80300
N353        N  0.71013297  0.70540843  0.77608362    -0.78000
C354        C  0.68155893  0.67926137  0.77625398     0.82800
N355        N  0.66507832  0.66893662  0.75108902    -0.77900
C356        C  0.67703943  0.68421516  0.72588331     0.82900
N357        N  0.70553027  0.71030877  0.72581639    -0.79600
Zn358      Zn  0.01889078  0.02504024  0.71628835     1.49700
Zn359      Zn  0.00828745  0.94658785  0.75001133     1.49400
Zn360      Zn  0.01901845  0.02478688  0.78491918     1.49100
Zn361      Zn  0.94117635  0.00853714  0.75060564     1.49500
O362        O  0.99679275  0.00138122  0.75056272    -1.84000
O363        O  0.04411679  0.98573123  0.69099215    -0.74600
O364        O  0.03575922  0.93045787  0.78562188    -0.74500
O365        O  0.05700069  0.06635732  0.77439057    -0.74000
O366        O  0.04243591  0.93287686  0.71679919    -0.74700
O367        O  0.05918261  0.06410823  0.72683699    -0.74300
O368        O  0.04677441  0.98486428  0.80868878    -0.74800
O369        O  0.92365108  0.03503416  0.78663087    -0.74200
O370        O  0.96030615  0.91485951  0.74748399    -0.75000
O371        O  0.97740041  0.04728871  0.81014528    -0.74400
O372        O  0.91366019  0.95806781  0.74895377    -0.74800
O373        O  0.92408911  0.03975077  0.71647544    -0.74800
O374        O  0.97805608  0.05057885  0.69251859    -0.74500
C375        C  0.05292149  0.95078611  0.69441104     0.77200
C376        C  0.04995791  0.94876160  0.80651405     0.77700
C377        C  0.07075261  0.07792717  0.75056186     0.76700
C378        C  0.94112206  0.04868344  0.80819769     0.77100
C379        C  0.92500629  0.92358342  0.74773797     0.78200
C380        C  0.94201517  0.05381664  0.69518398     0.77300
C381        C  0.75230831  0.75016109  0.75059540     0.01500
C382        C  0.79073780  0.73942910  0.75455239     0.04300
C383        C  0.81975155  0.76702462  0.75268605    -0.11800
C384        C  0.81031396  0.80557574  0.74754746     0.23600
C385        C  0.77179785  0.81630769  0.74392142    -0.12400
C386        C  0.74288309  0.78863189  0.74537116     0.05000
C387        C  0.84060390  0.83515132  0.74735896     0.27400
C388        C  0.85375384  0.85027472  0.77353590    -0.13000
C389        C  0.88158851  0.87906162  0.77355566     0.05500
C390        C  0.89638674  0.89289896  0.74744089    -0.09000
C391        C  0.88336762  0.87782765  0.72124618     0.06300
C392        C  0.85556351  0.84889448  0.72118766    -0.13400
Br393      Br  0.75873606  0.86906441  0.73721164    -0.05500
Br394      Br  0.80353643  0.68687384  0.76232901     0.00200
Br395      Br  0.89931913  0.89992612  0.80937227     0.00600
Br396      Br  0.83766544  0.82821987  0.68535389    -0.03800
Br397      Br  0.69009014  0.80351012  0.74131418     0.00700
Br398      Br  0.87251905  0.75216264  0.75686248    -0.03100
Br399      Br  0.83311317  0.83183546  0.80936581    -0.03900
Br400      Br  0.90319913  0.89749988  0.68555208     0.00000
C401        C  0.10105663  0.10783297  0.75039185     0.01500
C402        C  0.10023924  0.13773560  0.72988737     0.04300
C403        C  0.12944123  0.16531519  0.72929931    -0.11800
C404        C  0.15901405  0.16428908  0.74974309     0.23600
C405        C  0.15984575  0.13484946  0.77034163    -0.12400
C406        C  0.13140325  0.10646922  0.77047159     0.05000
C407        C  0.18871677  0.19471460  0.74994809     0.27400
C408        C  0.22509363  0.18794239  0.73793120    -0.13000
C409        C  0.25313011  0.21671660  0.73839165     0.05500
C410        C  0.24459443  0.25298789  0.75001005    -0.09000
C411        C  0.20761819  0.26013775  0.76084825     0.06300
C412        C  0.18022143  0.23083945  0.76162203    -0.13400
Br413      Br  0.20020873  0.13361028  0.79849889    -0.05500
Br414      Br  0.05805799  0.14289589  0.70349506     0.00200
Br415      Br  0.30342507  0.20609064  0.72335492     0.00600
Br416      Br  0.13071943  0.24020229  0.77852027    -0.03800
Br417      Br  0.13576513  0.06483894  0.79746471     0.00700
Br418      Br  0.12921190  0.20477136  0.70033732    -0.03100
Br419      Br  0.23612478  0.13936229  0.72031773    -0.03900
Br420      Br  0.19293259  0.31093387  0.77192421     0.00000
C421        C  0.42476451  0.42908079  0.57949007     0.01500
C422        C  0.40360061  0.39606921  0.57288937     0.04300
C423        C  0.38471426  0.37585746  0.59489281    -0.11800
C424        C  0.38806171  0.38777548  0.62364729     0.23600
C425        C  0.41019928  0.41996846  0.63031910    -0.12400
C426        C  0.42757503  0.44113535  0.60826540     0.05000
C427        C  0.36742091  0.36758597  0.64701735     0.27400
C428        C  0.33102339  0.38051714  0.65565734    -0.13000
C429        C  0.31342931  0.36486454  0.68015937     0.05500
C430        C  0.33198760  0.33595858  0.69590065    -0.09000
C431        C  0.36736078  0.32149288  0.68630149     0.06300
C432        C  0.38525948  0.33754554  0.66206469    -0.13400
Br433      Br  0.41695128  0.43477297  0.66987293    -0.05500
Br434      Br  0.40189213  0.37751546  0.53397214     0.00200
Br435      Br  0.26454023  0.38389666  0.69286169     0.00600
Br436      Br  0.43487480  0.31957139  0.65006202    -0.03800
Br437      Br  0.45296655  0.48816101  0.61739306     0.00700
Br438      Br  0.35433228  0.33178006  0.58587156    -0.03100
Br439      Br  0.30604383  0.42066881  0.63438150    -0.03900
Br440      Br  0.39120615  0.27964538  0.70636256     0.00000
C441        C  0.33110368  0.34227397  0.80106562     0.01500
C442        C  0.37111305  0.34248473  0.80530364     0.04300
C443        C  0.38696805  0.36069674  0.82940302    -0.11800
C444        C  0.36309538  0.37749936  0.85021962     0.23600
C445        C  0.32322572  0.37653994  0.84658356    -0.12400
C446        C  0.30731627  0.35969518  0.82187546     0.05000
C447        C  0.38024856  0.39704398  0.87544957     0.27400
C448        C  0.39398414  0.37558225  0.89893067    -0.13000
C449        C  0.41323895  0.39383525  0.92160131     0.05500
C450        C  0.41829768  0.43367627  0.92112205    -0.09000
C451        C  0.40364078  0.45519288  0.89806237     0.06300
C452        C  0.38477915  0.43698127  0.87524762    -0.13400
Br453      Br  0.29055546  0.39921953  0.87533893    -0.05500
Br454      Br  0.40477484  0.31678266  0.77878907     0.00200
Br455      Br  0.43355626  0.36427300  0.95300954     0.00600
Br456      Br  0.36612473  0.46660516  0.84323484    -0.03800
Br457      Br  0.25321718  0.36369747  0.81581502     0.00700
Br458      Br  0.44170424  0.36373103  0.83363371    -0.03100
Br459      Br  0.38685528  0.32108196  0.89966176    -0.03900
Br460      Br  0.41059739  0.50958349  0.89730256     0.00000
C461        C  0.66069549  0.67038681  0.69869439     0.01500
C462        C  0.68210138  0.64552905  0.68114703     0.04300
C463        C  0.66533086  0.62915665  0.65669740    -0.11800
C464        C  0.62681532  0.63682664  0.65009415     0.23600
C465        C  0.60565928  0.66239940  0.66728753    -0.12400
C466        C  0.62278229  0.67957576  0.69132833     0.05000
C467        C  0.60801246  0.61576936  0.62634667     0.27400
C468        C  0.60889023  0.63001823  0.59814938    -0.13000
C469        C  0.59224796  0.60918344  0.57553504     0.05500
C470        C  0.57358184  0.57395188  0.58109545    -0.09000
C471        C  0.57404140  0.55934711  0.60963600     0.06300
C472        C  0.59092649  0.58036877  0.63198670    -0.13400
Br473      Br  0.55284512  0.67260388  0.65849433    -0.05500
Br474      Br  0.73365047  0.63200379  0.69165912     0.00200
Br475      Br  0.59842920  0.62834816  0.53686107     0.00600
Br476      Br  0.59093011  0.56081050  0.67084242    -0.03800
Br477      Br  0.59462914  0.71600420  0.71411783     0.00700
Br478      Br  0.69455478  0.59499277  0.63272410    -0.03100
Br479      Br  0.63357917  0.67817051  0.59072651    -0.03900
Br480      Br  0.55196447  0.51066968  0.61943013     0.00000
C481        C  0.66874540  0.66126638  0.80342199     0.01500
C482        C  0.66780655  0.62108149  0.80577992     0.04300
C483        C  0.65257682  0.60375114  0.83052236    -0.11800
C484        C  0.63797810  0.62634607  0.85299208     0.23600
C485        C  0.64041429  0.66638042  0.85129575    -0.12400
C486        C  0.65562525  0.68386737  0.82654277     0.05000
C487        C  0.61659349  0.60807112  0.87689477     0.27400
C488        C  0.57776906  0.59905264  0.87304744    -0.13000
C489        C  0.55728285  0.58086162  0.89510501     0.05500
C490        C  0.57536403  0.57197311  0.92125724    -0.09000
C491        C  0.61401700  0.58146338  0.92534054     0.06300
C492        C  0.63473134  0.59920561  0.90307832    -0.13400
Br493      Br  0.62145147  0.69711395  0.88258575    -0.05500
Br494      Br  0.68757466  0.58941235  0.77523798     0.00200
Br495      Br  0.50410566  0.56882431  0.88976590     0.00600
Br496      Br  0.68802183  0.61076361  0.90811556    -0.03800
Br497      Br  0.65536446  0.73876817  0.82354773     0.00700
Br498      Br  0.65068617  0.54888730  0.83351992    -0.03100
Br499      Br  0.55273981  0.61165010  0.83737281    -0.03900
Br500      Br  0.63865013  0.56919623  0.96119479     0.00000
C501        C  0.07543361  0.93062940  0.67176062     0.01500
C502        C  0.10155036  0.95109303  0.65425423     0.04300
C503        C  0.11948902  0.93304699  0.63084571    -0.11800
C504        C  0.11449925  0.89375184  0.62625708     0.23600
C505        C  0.09117716  0.87253917  0.64491410    -0.12400
C506        C  0.07048758  0.89095508  0.66684066     0.05000
C507        C  0.13207741  0.87498208  0.60089607     0.27400
C508        C  0.10922072  0.86609051  0.57706395    -0.13000
C509        C  0.12517664  0.84732126  0.55325311     0.05500
C510        C  0.16500283  0.84016061  0.55198224    -0.09000
C511        C  0.18799163  0.84953886  0.57595926     0.06300
C512        C  0.17123470  0.86581875  0.60061943    -0.13400
Br513      Br  0.08719886  0.81800101  0.63981667    -0.05500
Br514      Br  0.11528027  0.00326908  0.66271808     0.00200
Br515      Br  0.09128281  0.82984422  0.52333587     0.00600
Br516      Br  0.20188527  0.87619070  0.63409404    -0.03800
Br517      Br  0.03367057  0.86119525  0.68816696     0.00700
Br518      Br  0.14997779  0.96243708  0.60429129    -0.03100
Br519      Br  0.05597225  0.88076166  0.57678290    -0.03900
Br520      Br  0.24276405  0.84306657  0.57497279     0.00000
C521        C  0.16841442  0.84451783  0.94690812     0.01500
C522        C  0.15354333  0.88228402  0.94623100     0.04300
C523        C  0.13334456  0.89541725  0.92214106    -0.11800
C524        C  0.12983046  0.87224445  0.89775549     0.23600
C525        C  0.14590139  0.83544291  0.89755038    -0.12400
C526        C  0.16446873  0.82115671  0.92219294     0.05000
C527        C  0.10971634  0.88758911  0.87226587     0.27400
C528        C  0.06963780  0.88539976  0.87058878    -0.13000
C529        C  0.05005618  0.90534351  0.84890229     0.05500
C530        C  0.07053759  0.92729274  0.82880904    -0.09000
C531        C  0.11068058  0.92806161  0.82970390     0.06300
C532        C  0.13026969  0.90825216  0.85144672    -0.13400
Br533      Br  0.14166260  0.80458336  0.86343226    -0.05500
Br534      Br  0.16194369  0.91785915  0.97729534     0.00200
Br535      Br  0.99509084  0.90405201  0.84742947     0.00600
Br536      Br  0.18521626  0.91004275  0.85329605    -0.03800
Br537      Br  0.18184840  0.76878096  0.92183957     0.00700
Br538      Br  0.10961875  0.94534080  0.92248067    -0.03100
Br539      Br  0.04167868  0.85608060  0.89861770    -0.03900
Br540      Br  0.13873346  0.95598366  0.80097463     0.00000
C541        C  0.40008469  0.61388745  0.49972074     0.01500
C542        C  0.39764375  0.63872480  0.52344045     0.04300
C543        C  0.37152699  0.66938829  0.52315623    -0.11800
C544        C  0.34757106  0.67513495  0.99925854     0.23600
C545        C  0.35075158  0.65094806  0.97525088    -0.12400
C546        C  0.37712025  0.62056598  0.97542676     0.05000
C547        C  0.31745441  0.70509474  0.49993250     0.27400
C548        C  0.28187936  0.69697264  0.51260521    -0.13000
C549        C  0.25248209  0.72440995  0.51225872     0.05500
C550        C  0.25862215  0.76040974  0.49947739    -0.08000
C551        C  0.29439295  0.76861583  0.98690898     0.06300
C552        C  0.32372212  0.74097558  0.98713571    -0.13400
Br553      Br  0.31865434  0.65944310  0.94221424    -0.05500
Br554      Br  0.42923723  0.62992931  0.55669801     0.00200
Br555      Br  0.20306464  0.71156115  0.52783440     0.00600
Br556      Br  0.37258216  0.75203750  0.96995849    -0.03800
Br557      Br  0.38288342  0.58907359  0.94190936     0.00700
Br558      Br  0.36819662  0.70347082  0.55551707    -0.03100
Br559      Br  0.27340636  0.64777988  0.53009232    -0.03900
Br560      Br  0.30378730  0.81811528  0.97022301     0.00000
C561        C  0.83159296  0.16500483  0.55374197     0.01500
C562        C  0.80814535  0.14589440  0.57373617     0.04300
C563        C  0.82434599  0.12922675  0.59841801    -0.11800
C564        C  0.86396728  0.13146342  0.60310091     0.23600
C565        C  0.88717686  0.15173699  0.58372112    -0.12400
C566        C  0.87102453  0.16863694  0.55917298     0.05000
C567        C  0.88175423  0.11088564  0.62751940     0.27400
C568        C  0.88673446  0.12924382  0.65412204    -0.13000
C569        C  0.90641745  0.11056512  0.67643463     0.05500
C570        C  0.92037518  0.07324061  0.67235852    -0.09000
C571        C  0.91418503  0.05439879  0.64611874     0.06300
C572        C  0.89521642  0.07331248  0.62363162    -0.13400
Br573      Br  0.94135500  0.15542708  0.59060264    -0.05500
Br574      Br  0.75426048  0.14035901  0.56650931     0.00200
Br575      Br  0.91572897  0.13655925  0.71211450     0.00600
Br576      Br  0.88806735  0.04806211  0.58728439    -0.03800
Br577      Br  0.90294892  0.19751790  0.53337531     0.00700
Br578      Br  0.79266185  0.10224441  0.62549171    -0.03100
Br579      Br  0.86684215  0.18004307  0.65972888    -0.03900
Br580      Br  0.93125849  0.00239155  0.64124242     0.00000
C581        C  0.91863147  0.06616397  0.83171287     0.01500
C582        C  0.89232214  0.09580475  0.82584355     0.04300
C583        C  0.87191740  0.11316515  0.84839999    -0.11800
C584        C  0.87743131  0.10080744  0.87684141     0.23600
C585        C  0.90215542  0.06997536  0.88260536    -0.12400
C586        C  0.92301795  0.05290670  0.86016231     0.05000
C587        C  0.85958655  0.12200607  0.90094566     0.27400
C588        C  0.87899401  0.15314120  0.91312352    -0.13000
C589        C  0.86335474  0.17232042  0.93690635     0.05500
C590        C  0.82869257  0.15991034  0.94895791    -0.09000
C591        C  0.80898567  0.12913073  0.93655024     0.06300
C592        C  0.82412810  0.11055893  0.91227307    -0.13400
Br593      Br  0.90721980  0.05123217  0.92138660    -0.05500
Br594      Br  0.88555042  0.11427251  0.78718774     0.00200
Br595      Br  0.88946243  0.21546798  0.95312437     0.00600
Br596      Br  0.79678111  0.06911349  0.89473441    -0.03800
Br597      Br  0.95670716  0.01058695  0.86844034     0.00700
Br598      Br  0.83673041  0.15436687  0.84062068    -0.03100
Br599      Br  0.92752741  0.16879563  0.89750876    -0.03900
Br600      Br  0.76222218  0.11127843  0.95369460     0.00000
C601        C  0.74243394  0.24820337  0.50032274     0.01500
C602        C  0.74550891  0.28103734  0.01784702     0.04300
C603        C  0.71641711  0.30888316  0.01771944    -0.11800
C604        C  0.68449913  0.30468778  0.49974501     0.23600
C605        C  0.68124213  0.27223113  0.48225064    -0.12400
C606        C  0.70988226  0.24393256  0.48262533     0.05000
C607        C  0.65455875  0.33477526  0.99898784     0.27400
C608        C  0.62284168  0.33257570  0.01749286    -0.13000
C609        C  0.59490742  0.36156266  0.01725382     0.05500
C610        C  0.59860950  0.39303707  0.49841384    -0.09000
C611        C  0.63038823  0.39494540  0.47970550     0.06300
C612        C  0.65815696  0.36580883  0.47997996    -0.13400
Br613      Br  0.63709525  0.26670131  0.45788493    -0.05500
Br614      Br  0.79037331  0.28966520  0.04095291     0.00200
Br615      Br  0.55092999  0.35700269  0.04210396     0.00600
Br616      Br  0.70160814  0.36837201  0.45453007    -0.03800
Br617      Br  0.70283789  0.19871043  0.45973373     0.00700
Br618      Br  0.72004727  0.35317465  0.04212022    -0.03100
Br619      Br  0.61787099  0.28957729  0.04312573    -0.03900
Br620      Br  0.63749883  0.43845611  0.45479582     0.00000
loop_ 
_geom_bond_atom_site_label_1 
_geom_bond_atom_site_label_2 
_geom_bond_distance 
_geom_bond_site_symmetry_2 
_ccdc_geom_bond_type 
C1            N6   1.361       .  A
C1          N312   1.362   1_554  A
C1          C291   1.489       .  S
N2            C3   1.358       .  A
N2          C311   1.362       .  A
C3            N4   1.355       .  A
C3          C280   1.472       .  S
N4          C315   1.356       .  A
C5            N6   1.359       .  A
C5          N314   1.356       .  A
C5          C251   1.478       .  S
C7           N12   1.361   1_556  A
C7          N318   1.362       .  A
C7          C240   1.480       .  S
N8            C9   1.359       .  A
N8          C317   1.362       .  A
C9          N320   1.354       .  A
C9          C211   1.493       .  S
N10          C11   1.354   1_556  A
N10         C319   1.354       .  A
C11          N12   1.357       .  A
C11         C200   1.488       .  S
Zn13         O17   1.963       .  S
Zn13         O18   2.012       .  S
Zn13         O22   2.020       .  S
Zn13         O29   2.028       .  S
Zn14        O327   1.965       .  S
Zn14         O19   2.024       .  S
Zn14         O21   2.024       .  S
Zn14         O25   2.021       .  S
Zn15         O17   1.974       .  S
Zn15         O20   2.038       .  S
Zn15         O26   2.042       .  S
Zn15        O333   2.039   1_554  S
Zn16         O17   1.967       .  S
Zn16         O24   2.012   1_554  S
Zn16         O28   2.027       .  S
Zn16        O337   2.027   1_554  S
O17        Zn324   1.965   1_554  S
O18          C30   1.272   1_554  A
O19          C31   1.273       .  A
O20          C32   1.276       .  A
O21         C340   1.274       .  A
O22          C32   1.275       .  A
O23        Zn325   2.039       .  S
O23          C31   1.275       .  A
O24          C33   1.272   1_556  A
O25          C34   1.274       .  A
O26          C33   1.277       .  A
O27        Zn326   2.026       .  S
O27          C34   1.274       .  A
O28          C35   1.273       .  A
O29          C35   1.272       .  A
C30         C300   1.483       .  S
C30         O331   1.274       .  A
C31         C140   1.479       .  S
C32         C111   1.481       .  S
C33         C231   1.478   1_554  S
C34         C180   1.475       .  S
C35         C160   1.503       .  S
C36          N37   1.367       .  A
C36          N41   1.360       .  A
C36         C100   1.488       .  S
N37          C38   1.365       .  A
C38          N39   1.359       .  A
C38         C131   1.493       .  S
N39          C40   1.357       .  A
C40          N41   1.357       .  A
C40         C120   1.476       .  S
C42          N43   1.361       .  A
C42          N47   1.359       .  A
C42          C71   1.475       .  S
N43          C44   1.361       .  A
C44          N45   1.358       .  A
C44         C171   1.483       .  S
N45          C46   1.356       .  A
C46          N47   1.357       .  A
C46         C151   1.475       .  S
Zn48         O52   1.958   1_455  S
Zn48         O53   2.015   1_545  S
Zn48         O57   2.033       .  S
Zn48         O64   2.017   1_455  S
Zn49         O52   1.962   1_465  S
Zn49         O54   2.000       .  S
Zn49         O56   2.012       .  S
Zn49         O60   2.024   1_455  S
Zn50         O52   1.964   1_455  S
Zn50         O55   2.037       .  S
Zn50         O58   2.030   1_545  S
Zn50         O61   2.029   1_455  S
Zn51         O52   1.964       .  S
Zn51         O59   2.013       .  S
Zn51         O62   2.021   1_545  S
Zn51         O63   2.019       .  S
O53          C65   1.272       .  A
O54          C66   1.270       .  A
O55          C67   1.276       .  A
O56          C65   1.271       .  A
O57          C67   1.275       .  A
O58          C66   1.275       .  A
O59          C68   1.273       .  A
O60          C69   1.273       .  A
O61          C68   1.275       .  A
O62          C69   1.273       .  A
O63          C70   1.273       .  A
O64          C70   1.273       .  A
C65         C191   1.493       .  S
C66         C220   1.470       .  S
C67          C91   1.496       .  S
C68         C271   1.480       .  S
C69          C80   1.474       .  S
C70         C260   1.472       .  S
C71          C72   1.409       .  A
C71          C76   1.409       .  A
C72          C73   1.409       .  A
C72         Br84   1.929       .  S
C73          C74   1.411       .  A
C73         Br88   1.929       .  S
C74          C77   1.487       .  S
C74          C75   1.410       .  A
C75          C76   1.408       .  A
C75         Br83   1.929       .  S
C76         Br87   1.930       .  S
C77          C78   1.410       .  A
C77          C82   1.411       .  A
C78          C79   1.407       .  A
C78         Br89   1.930       .  S
C79          C80   1.408       .  A
C79         Br85   1.928       .  S
C80          C81   1.408       .  A
C81          C82   1.410       .  A
C81         Br90   1.929       .  S
C82         Br86   1.928       .  S
C91          C92   1.418       .  A
C91          C96   1.418       .  A
C92          C93   1.411       .  A
C92        Br104   1.932       .  S
C93          C94   1.409       .  A
C93        Br108   1.931       .  S
C94          C97   1.494       .  S
C94          C95   1.409       .  A
C95          C96   1.412       .  A
C95        Br103   1.931       .  S
C96        Br107   1.931       .  S
C97          C98   1.411       .  A
C97         C102   1.410       .  A
C98          C99   1.412       .  A
C98        Br109   1.929       .  S
C99         C100   1.414       .  A
C99        Br105   1.930       .  S
C100        C101   1.411       .  A
C101        C102   1.410       .  A
C101       Br110   1.923       .  S
C102       Br106   1.931       .  S
C111        C112   1.412       .  A
C111        C116   1.410       .  A
C112        C113   1.411       .  A
C112       Br124   1.929       .  S
C113        C114   1.409       .  A
C113       Br128   1.928       .  S
C114        C117   1.486       .  S
C114        C115   1.408       .  A
C115        C116   1.406       .  A
C115       Br123   1.931       .  S
C116       Br127   1.926       .  S
C117        C118   1.410       .  A
C117        C122   1.409       .  A
C118        C119   1.408       .  A
C118       Br129   1.929       .  S
C119        C120   1.408       .  A
C119       Br125   1.928       .  S
C120        C121   1.410       .  A
C121        C122   1.408       .  A
C121       Br130   1.927       .  S
C122       Br126   1.929       .  S
C131        C132   1.416       .  A
C131        C136   1.415       .  A
C132        C133   1.409       .  A
C132       Br144   1.928       .  S
C133        C134   1.408       .  A
C133       Br148   1.932       .  S
C134        C137   1.491       .  S
C134        C135   1.408       .  A
C135        C136   1.412       .  A
C135       Br143   1.931       .  S
C136       Br147   1.922       .  S
C137        C138   1.411       .  A
C137        C142   1.410       .  A
C138        C139   1.410       .  A
C138       Br149   1.929       .  S
C139        C140   1.409       .  A
C139       Br145   1.928       .  S
C140        C141   1.409       .  A
C141        C142   1.408       .  A
C141       Br150   1.924       .  S
C142       Br146   1.930       .  S
C151        C152   1.409       .  A
C151        C156   1.409       .  A
C152        C153   1.407       .  A
C152       Br164   1.930       .  S
C153        C154   1.410       .  A
C153       Br168   1.929       .  S
C154        C157   1.488       .  S
C154        C155   1.411       .  A
C155        C156   1.409       .  A
C155       Br163   1.928       .  S
C156       Br167   1.929       .  S
C157        C158   1.405       .  A
C157        C162   1.405       .  A
C158        C159   1.412       .  A
C158       Br169   1.931       .  S
C159        C160   1.424       .  A
C159       Br165   1.934       .  S
C160        C161   1.424       .  A
C161        C162   1.410       .  A
C161       Br170   1.931       .  S
C162       Br166   1.935       .  S
C171        C172   1.414       .  A
C171        C176   1.413       .  A
C172        C173   1.408       .  A
C172       Br184   1.932       .  S
C173        C174   1.408       .  A
C173       Br188   1.930       .  S
C174        C177   1.487       .  S
C174        C175   1.409       .  A
C175        C176   1.410       .  A
C175       Br183   1.930       .  S
C176       Br187   1.930       .  S
C177        C178   1.410       .  A
C177        C182   1.410       .  A
C178        C179   1.406       .  A
C178       Br189   1.931       .  S
C179        C180   1.408       .  A
C179       Br185   1.929       .  S
C180        C181   1.410       .  A
C181        C182   1.410       .  A
C181       Br190   1.929       .  S
C182       Br186   1.927       .  S
C191        C192   1.421       .  A
C191        C196   1.422       .  A
C192        C193   1.408       .  A
C192       Br204   1.935   1_565  S
C193        C194   1.407       .  A
C193       Br208   1.933       .  S
C194        C197   1.485       .  S
C194        C195   1.406       .  A
C195        C196   1.408       .  A
C195       Br203   1.933       .  S
C196       Br207   1.935       .  S
C197        C198   1.407       .  A
C197        C202   1.408       .  A
C198        C199   1.405       .  A
C198       Br209   1.933       .  S
C199        C200   1.418       .  A
C199       Br205   1.935       .  S
C200        C201   1.419       .  A
C201        C202   1.410       .  A
C201       Br210   1.932       .  S
C202       Br206   1.931       .  S
C211        C212   1.421       .  A
C211        C216   1.422       .  A
C212        C213   1.404       .  A
C212       Br224   1.936       .  S
C213        C214   1.404       .  A
C213       Br228   1.935       .  S
C214        C217   1.482       .  S
C214        C215   1.406       .  A
C215        C216   1.411       .  A
C215       Br223   1.931       .  S
C216       Br227   1.933       .  S
C217        C218   1.409       .  A
C217        C222   1.409       .  A
C218        C219   1.406       .  A
C218       Br229   1.929       .  S
C219        C220   1.409       .  A
C219       Br225   1.928   1_455  S
C220        C221   1.408       .  A
C221        C222   1.406       .  A
C221       Br230   1.928       .  S
C222       Br226   1.929       .  S
C231        C232   1.410   1_556  A
C231        C546   1.409       .  A
C232        C233   1.409       .  A
C232       Br244   1.930       .  S
C233        C544   1.410   1_554  A
C233       Br248   1.929       .  S
C234        C547   1.486       .  S
C234        C235   1.409       .  A
C234        C543   1.410       .  A
C235        C236   1.407       .  A
C235       Br243   1.930       .  S
C236        C541   1.409       .  A
C236       Br247   1.924       .  S
C237        C544   1.486       .  S
C237        C238   1.408   1_556  A
C237        C552   1.409       .  A
C238        C239   1.407       .  A
C238       Br249   1.931       .  S
C239        C240   1.412   1_554  A
C239       Br245   1.931       .  S
C240        C551   1.413       .  A
C241        C242   1.410       .  A
C241        C550   1.413       .  A
C241       Br250   1.930       .  S
C242        C547   1.409       .  A
C242       Br246   1.929       .  S
C251        C252   1.411       .  A
C251        C256   1.412       .  A
C252        C253   1.409       .  A
C252       Br264   1.929       .  S
C253        C254   1.408       .  A
C253       Br268   1.928       .  S
C254        C257   1.483       .  S
C254        C255   1.408       .  A
C255        C256   1.406       .  A
C255       Br263   1.931       .  S
C256       Br267   1.929       .  S
C257        C258   1.409       .  A
C257        C262   1.409       .  A
C258        C259   1.408       .  A
C258       Br269   1.928       .  S
C259        C260   1.408       .  A
C259       Br265   1.926       .  S
C260        C261   1.408       .  A
C261        C262   1.406       .  A
C261       Br270   1.931       .  S
C262       Br266   1.930       .  S
C271        C272   1.413       .  A
C271        C276   1.412       .  A
C272        C273   1.408       .  A
C272       Br284   1.928       .  S
C273        C274   1.407       .  A
C273       Br288   1.930       .  S
C274        C277   1.483       .  S
C274        C275   1.408       .  A
C275        C276   1.408       .  A
C275       Br283   1.930       .  S
C276       Br287   1.931       .  S
C277        C278   1.409       .  A
C277        C282   1.409       .  A
C278        C279   1.406       .  A
C278       Br289   1.930       .  S
C279        C280   1.408       .  A
C279       Br285   1.928       .  S
C280        C281   1.409       .  A
C281        C282   1.408       .  A
C281       Br290   1.928       .  S
C282       Br286   1.928       .  S
C291        C296   1.417   1_554  A
C291        C602   1.417       .  A
C292        C293   1.409       .  A
C292        C601   1.417       .  A
C292       Br304   1.932       .  S
C293        C604   1.407       .  A
C293       Br308   1.931       .  S
C294        C607   1.485       .  S
C294        C295   1.406       .  A
C294        C603   1.407   1_556  A
C295        C296   1.408       .  A
C295       Br303   1.931       .  S
C296       Br307   1.930       .  S
C297        C604   1.485       .  S
C297        C298   1.408       .  A
C297        C612   1.408       .  A
C298        C299   1.408       .  A
C298       Br309   1.930       .  S
C299        C610   1.415       .  A
C299       Br305   1.933       .  S
C300        C301   1.415       .  A
C300        C609   1.415   1_556  A
C301        C302   1.408       .  A
C301       Br310   1.932       .  S
C302        C607   1.408       .  A
C302       Br306   1.930       .  S
C311        N316   1.361       .  A
C311        C601   1.489       .  S
N312        C313   1.358       .  A
C313        N314   1.355   1_556  A
C313        C590   1.472       .  S
C315        N316   1.359       .  A
C315        C561   1.478       .  S
C317        N322   1.361       .  A
C317        C550   1.480       .  S
N318        C319   1.359       .  A
C319        C521   1.493       .  S
N320        C321   1.354       .  A
C321        N322   1.357       .  A
C321        C510   1.488       .  S
Zn323       O327   1.963       .  S
Zn323       O328   2.012       .  S
Zn323       O332   2.020       .  S
Zn323       O339   2.028       .  S
Zn324       O329   2.024       .  S
Zn324       O331   2.024       .  S
Zn324       O335   2.022       .  S
Zn325       O327   1.974       .  S
Zn325       O330   2.038       .  S
Zn325       O336   2.042       .  S
Zn326       O327   1.967       .  S
Zn326       O334   2.012       .  S
Zn326       O338   2.027       .  S
O328        C340   1.272       .  A
O329        C341   1.273       .  A
O330        C342   1.276       .  A
O332        C342   1.275       .  A
O333        C341   1.275       .  A
O334        C343   1.272       .  A
O335        C344   1.274       .  A
O336        C343   1.277       .  A
O337        C344   1.274       .  A
O338        C345   1.273       .  A
O339        C345   1.272       .  A
C340        C610   1.483       .  S
C341        C450   1.479       .  S
C342        C421   1.481       .  S
C343        C541   1.478       .  S
C344        C490   1.475       .  S
C345        C470   1.503       .  S
C346        N347   1.367       .  A
C346        N351   1.360       .  A
C346        C410   1.488       .  S
N347        C348   1.365       .  A
C348        N349   1.359       .  A
C348        C441   1.493       .  S
N349        C350   1.357       .  A
C350        N351   1.357       .  A
C350        C430   1.476       .  S
C352        N353   1.361       .  A
C352        N357   1.359       .  A
C352        C381   1.475       .  S
N353        C354   1.361       .  A
C354        N355   1.358       .  A
C354        C481   1.483       .  S
N355        C356   1.356       .  A
C356        N357   1.357       .  A
C356        C461   1.475       .  S
Zn358       O362   1.958   1_455  S
Zn358       O363   2.015   1_545  S
Zn358       O367   2.033       .  S
Zn358       O374   2.017   1_455  S
Zn359       O362   1.962   1_465  S
Zn359       O364   2.000       .  S
Zn359       O366   2.012       .  S
Zn359       O370   2.024   1_455  S
Zn360       O362   1.964   1_455  S
Zn360       O365   2.037       .  S
Zn360       O368   2.030   1_545  S
Zn360       O371   2.029   1_455  S
Zn361       O362   1.964       .  S
Zn361       O369   2.013       .  S
Zn361       O372   2.021   1_545  S
Zn361       O373   2.019       .  S
O363        C375   1.272       .  A
O364        C376   1.270       .  A
O365        C377   1.276       .  A
O366        C375   1.271       .  A
O367        C377   1.275       .  A
O368        C376   1.275       .  A
O369        C378   1.273       .  A
O370        C379   1.273       .  A
O371        C378   1.275       .  A
O372        C379   1.273       .  A
O373        C380   1.273       .  A
O374        C380   1.273       .  A
C375        C501   1.493       .  S
C376        C530   1.470       .  S
C377        C401   1.496       .  S
C378        C581   1.480       .  S
C379        C390   1.474       .  S
C380        C570   1.472       .  S
C381        C382   1.409       .  A
C381        C386   1.409       .  A
C382        C383   1.409       .  A
C382       Br394   1.929       .  S
C383        C384   1.411       .  A
C383       Br398   1.929       .  S
C384        C387   1.487       .  S
C384        C385   1.410       .  A
C385        C386   1.408       .  A
C385       Br393   1.929       .  S
C386       Br397   1.930       .  S
C387        C388   1.410       .  A
C387        C392   1.411       .  A
C388        C389   1.407       .  A
C388       Br399   1.930       .  S
C389        C390   1.408       .  A
C389       Br395   1.928       .  S
C390        C391   1.408       .  A
C391        C392   1.410       .  A
C391       Br400   1.929       .  S
C392       Br396   1.928       .  S
C401        C402   1.418       .  A
C401        C406   1.418       .  A
C402        C403   1.411       .  A
C402       Br414   1.932       .  S
C403        C404   1.409       .  A
C403       Br418   1.931       .  S
C404        C407   1.494       .  S
C404        C405   1.409       .  A
C405        C406   1.412       .  A
C405       Br413   1.931       .  S
C406       Br417   1.931       .  S
C407        C408   1.411       .  A
C407        C412   1.410       .  A
C408        C409   1.412       .  A
C408       Br419   1.929       .  S
C409        C410   1.414       .  A
C409       Br415   1.930       .  S
C410        C411   1.411       .  A
C411        C412   1.410       .  A
C411       Br420   1.923       .  S
C412       Br416   1.931       .  S
C421        C422   1.412       .  A
C421        C426   1.410       .  A
C422        C423   1.411       .  A
C422       Br434   1.929       .  S
C423        C424   1.409       .  A
C423       Br438   1.928       .  S
C424        C427   1.486       .  S
C424        C425   1.408       .  A
C425        C426   1.406       .  A
C425       Br433   1.931       .  S
C426       Br437   1.926       .  S
C427        C428   1.410       .  A
C427        C432   1.409       .  A
C428        C429   1.408       .  A
C428       Br439   1.929       .  S
C429        C430   1.408       .  A
C429       Br435   1.928       .  S
C430        C431   1.410       .  A
C431        C432   1.408       .  A
C431       Br440   1.927       .  S
C432       Br436   1.929       .  S
C441        C442   1.416       .  A
C441        C446   1.415       .  A
C442        C443   1.409       .  A
C442       Br454   1.928       .  S
C443        C444   1.408       .  A
C443       Br458   1.932       .  S
C444        C447   1.491       .  S
C444        C445   1.408       .  A
C445        C446   1.412       .  A
C445       Br453   1.931       .  S
C446       Br457   1.922       .  S
C447        C448   1.411       .  A
C447        C452   1.410       .  A
C448        C449   1.410       .  A
C448       Br459   1.929       .  S
C449        C450   1.409       .  A
C449       Br455   1.928       .  S
C450        C451   1.409       .  A
C451        C452   1.408       .  A
C451       Br460   1.924       .  S
C452       Br456   1.930       .  S
C461        C462   1.409       .  A
C461        C466   1.409       .  A
C462        C463   1.407       .  A
C462       Br474   1.930       .  S
C463        C464   1.410       .  A
C463       Br478   1.929       .  S
C464        C467   1.488       .  S
C464        C465   1.411       .  A
C465        C466   1.409       .  A
C465       Br473   1.928       .  S
C466       Br477   1.929       .  S
C467        C468   1.405       .  A
C467        C472   1.405       .  A
C468        C469   1.412       .  A
C468       Br479   1.931       .  S
C469        C470   1.424       .  A
C469       Br475   1.934       .  S
C470        C471   1.424       .  A
C471        C472   1.410       .  A
C471       Br480   1.931       .  S
C472       Br476   1.935       .  S
C481        C482   1.414       .  A
C481        C486   1.413       .  A
C482        C483   1.408       .  A
C482       Br494   1.932       .  S
C483        C484   1.408       .  A
C483       Br498   1.930       .  S
C484        C487   1.487       .  S
C484        C485   1.409       .  A
C485        C486   1.410       .  A
C485       Br493   1.930       .  S
C486       Br497   1.930       .  S
C487        C488   1.410       .  A
C487        C492   1.410       .  A
C488        C489   1.406       .  A
C488       Br499   1.931       .  S
C489        C490   1.408       .  A
C489       Br495   1.929       .  S
C490        C491   1.410       .  A
C491        C492   1.410       .  A
C491       Br500   1.929       .  S
C492       Br496   1.927       .  S
C501        C502   1.421       .  A
C501        C506   1.422       .  A
C502        C503   1.408       .  A
C502       Br514   1.935   1_565  S
C503        C504   1.407       .  A
C503       Br518   1.933       .  S
C504        C507   1.485       .  S
C504        C505   1.406       .  A
C505        C506   1.408       .  A
C505       Br513   1.933       .  S
C506       Br517   1.935       .  S
C507        C508   1.407       .  A
C507        C512   1.408       .  A
C508        C509   1.405       .  A
C508       Br519   1.933       .  S
C509        C510   1.418       .  A
C509       Br515   1.935       .  S
C510        C511   1.419       .  A
C511        C512   1.410       .  A
C511       Br520   1.932       .  S
C512       Br516   1.931       .  S
C521        C522   1.421       .  A
C521        C526   1.422       .  A
C522        C523   1.404       .  A
C522       Br534   1.936       .  S
C523        C524   1.404       .  A
C523       Br538   1.935       .  S
C524        C527   1.482       .  S
C524        C525   1.406       .  A
C525        C526   1.411       .  A
C525       Br533   1.931       .  S
C526       Br537   1.933       .  S
C527        C528   1.409       .  A
C527        C532   1.409       .  A
C528        C529   1.406       .  A
C528       Br539   1.929       .  S
C529        C530   1.409       .  A
C529       Br535   1.928   1_455  S
C530        C531   1.408       .  A
C531        C532   1.406       .  A
C531       Br540   1.928       .  S
C532       Br536   1.929       .  S
C541        C542   1.410       .  A
C542        C543   1.409       .  A
C542       Br554   1.930       .  S
C543       Br558   1.929       .  S
C544        C545   1.409       .  A
C545        C546   1.407       .  A
C545       Br553   1.930       .  S
C546       Br557   1.924       .  S
C547        C548   1.408       .  A
C548        C549   1.407       .  A
C548       Br559   1.931       .  S
C549        C550   1.412       .  A
C549       Br555   1.931       .  S
C551        C552   1.410       .  A
C551       Br560   1.930       .  S
C552       Br556   1.929       .  S
C561        C562   1.411       .  A
C561        C566   1.412       .  A
C562        C563   1.409       .  A
C562       Br574   1.929       .  S
C563        C564   1.408       .  A
C563       Br578   1.928       .  S
C564        C567   1.483       .  S
C564        C565   1.408       .  A
C565        C566   1.406       .  A
C565       Br573   1.931       .  S
C566       Br577   1.929       .  S
C567        C568   1.409       .  A
C567        C572   1.409       .  A
C568        C569   1.408       .  A
C568       Br579   1.928       .  S
C569        C570   1.408       .  A
C569       Br575   1.926       .  S
C570        C571   1.408       .  A
C571        C572   1.406       .  A
C571       Br580   1.931       .  S
C572       Br576   1.930       .  S
C581        C582   1.413       .  A
C581        C586   1.412       .  A
C582        C583   1.408       .  A
C582       Br594   1.928       .  S
C583        C584   1.407       .  A
C583       Br598   1.930       .  S
C584        C587   1.483       .  S
C584        C585   1.408       .  A
C585        C586   1.408       .  A
C585       Br593   1.930       .  S
C586       Br597   1.931       .  S
C587        C588   1.409       .  A
C587        C592   1.409       .  A
C588        C589   1.406       .  A
C588       Br599   1.930       .  S
C589        C590   1.408       .  A
C589       Br595   1.928       .  S
C590        C591   1.409       .  A
C591        C592   1.408       .  A
C591       Br600   1.928       .  S
C592       Br596   1.928       .  S
C601        C606   1.417       .  A
C602        C603   1.409       .  A
C602       Br614   1.932       .  S
C603       Br618   1.931       .  S
C604        C605   1.406       .  A
C605        C606   1.408       .  A
C605       Br613   1.931       .  S
C606       Br617   1.930       .  S
C607        C608   1.408   1_556  A
C608        C609   1.408       .  A
C608       Br619   1.930       .  S
C609       Br615   1.933       .  S
C610        C611   1.415       .  A
C611        C612   1.408       .  A
C611       Br620   1.932       .  S
C612       Br616   1.930       .  S
