geometry optimzed in LAMMPS
_audit_creation_date              2020-11-30 
_audit_creation_method            'lammps2cif' 
_symmetry_space_group_name_H-M    'P1' 
_symmetry_Int_Tables_number       1 
_symmetry_cell_setting            triclinic 
loop_ 
_symmetry_equiv_pos_as_xyz 
  x,y,z 
_cell_length_a                    38.14608502 
_cell_length_b                    29.225416056041567 
_cell_length_c                    27.03825959039181 
_cell_angle_alpha                 106.8867558832821 
_cell_angle_beta                  90.08549410066901 
_cell_angle_gamma                 90.07936255869767 
loop_ 
_atom_site_label 
_atom_site_type_symbol 
_atom_site_fract_x 
_atom_site_fract_y 
_atom_site_fract_z 
_atom_site_charge 
O1          O  0.10087619  0.11981325  0.93584618    -0.81100
O2          O  0.16433160  0.32902558  0.96798253    -0.65800
O3          O  0.14402426  0.20262772  0.97338780    -1.12400
C4          C  0.06335809  0.27771616  0.10297782     1.05800
O5          O  0.16112935  0.36449024  0.05247228    -0.79000
O6          O  0.15613040  0.29882154  0.10525341    -0.66600
Ni7        Ni  0.13746466  0.15269235  0.90925832     1.34900
C8          C  0.15394345  0.25590701  0.10662621     0.84500
O9          O  0.19380022  0.24597224  0.92554735    -0.79600
O10         O  0.17419891  0.17662331  0.87360597    -0.89800
C11         C  0.17115124  0.36359455  0.00740090     0.84100
O12         O  0.10310053  0.18670547  0.88292864    -0.68000
O13         O  0.08539924  0.31194749  0.11309630    -0.87300
C14         C  0.10456411  0.22966214  0.88127508     0.84900
C15         C  0.19537263  0.21194853  0.88406177     1.06500
H16         H  0.09647920  0.29539864  0.99658263     0.38300
O17         O  0.11524817  0.28474785  0.01447693    -1.10000
O18         O  0.13363164  0.22492178  0.07748055    -0.66600
Ni19       Ni  0.10430417  0.22195724  0.01801379     1.26300
O20         O  0.12446221  0.26140029  0.91028777    -0.66900
O21         O  0.06476354  0.24270053  0.06210481    -0.79200
C22         C  0.08921215  0.12228923  0.98070505     0.84300
O23         O  0.09365725  0.15877070  0.01910931    -0.66300
Ni24       Ni  0.12308263  0.33409966  0.07840488     1.27400
Ni25       Ni  0.15441700  0.26561473  0.96946182     1.26100
H26         H  0.16287958  0.19258780  0.99198019     0.38800
O27         O  0.32197838  0.65495684  0.94088167    -0.81100
O28         O  0.41130862  0.84619772  0.99164849    -0.65800
O29         O  0.37840260  0.71954021  0.97639702    -1.12400
C30         C  0.31119404  0.79563056  0.12605444     1.05800
O31         O  0.41741463  0.86395058  0.07668838    -0.79000
O32         O  0.39855981  0.80030004  0.12672001    -0.66600
Ni33       Ni  0.36126987  0.68087107  0.91142963     1.34900
C34         C  0.39983378  0.75495335  0.11436173     0.83700
O35         O  0.42864188  0.76102488  0.92901334    -0.79600
O36         O  0.39904929  0.70122281  0.87438956    -0.89800
C37         C  0.42550229  0.87029357  0.03358340     0.84100
O38         O  0.33102151  0.72771315  0.89880615    -0.68000
O39         O  0.33096383  0.83199273  0.13213009    -0.87300
C40         C  0.33760591  0.77103004  0.90225411     0.84900
C41         C  0.42487663  0.73046094  0.88505122     1.06500
H42         H  0.34054236  0.81626112  0.02242508     0.38300
O43         O  0.35994980  0.80154865  0.03500037    -1.10000
O44         O  0.38183979  0.72777147  0.07795428    -0.66600
Ni45       Ni  0.34596251  0.73780018  0.03209272     1.26300
O46         O  0.36206530  0.79490489  0.93073012    -0.66900
O47         O  0.31396228  0.75756076  0.08863026    -0.79200
C48         C  0.31810819  0.64642361  0.98423690     0.84300
O49         O  0.33225002  0.67321532  0.02487214    -0.66300
Ni50       Ni  0.37346875  0.84486707  0.10053388     1.27400
Ni51       Ni  0.39437774  0.78263778  0.98168073     1.26100
H52         H  0.39765590  0.70229657  0.98583642     0.38800
O53         O  0.35045238  0.37324508  0.56521360    -0.81100
O54         O  0.41442066  0.16544975  0.51755081    -0.65800
O55         O  0.39479831  0.29390469  0.52043755    -1.12400
C56         C  0.31445032  0.22472268  0.38791255     1.05800
O57         O  0.41299078  0.13532327  0.43215622    -0.79000
O58         O  0.40804968  0.20603049  0.38580669    -0.66600
Ni59       Ni  0.38976836  0.34201727  0.58630107     1.34900
C60         C  0.40497851  0.24947977  0.38669909     0.84500
O61         O  0.44369332  0.24672855  0.56516314    -0.79600
O62         O  0.42871158  0.31839927  0.61709598    -0.89800
C63         C  0.42229429  0.13325556  0.47665671     0.84100
O64         O  0.35822114  0.30677009  0.61559313    -0.68000
O65         O  0.33723558  0.19152887  0.37518231    -0.87300
C66         C  0.35730196  0.26253966  0.61205721     0.84900
C67         C  0.44762729  0.28104590  0.60578705     1.06500
H68         H  0.34728892  0.20040374  0.48997031     0.38300
O69         O  0.36616191  0.21286121  0.47391500    -1.10000
O70         O  0.38395960  0.27853802  0.41674566    -0.66600
Ni71       Ni  0.35498510  0.27682989  0.47535398     1.26300
O72         O  0.37421608  0.23078881  0.57805619    -0.66900
O73         O  0.31553382  0.25773546  0.43053680    -0.79200
C74         C  0.33754136  0.37371449  0.52207694     0.84300
O75         O  0.34348849  0.34124445  0.48038323    -0.66300
Ni76       Ni  0.37498268  0.16729781  0.40798589     1.27400
Ni77       Ni  0.40475493  0.22978151  0.52028040     1.26100
H78         H  0.41361409  0.30442212  0.50248110     0.38800
O79         O  0.08546940  0.86491079  0.55187409    -0.81100
O80         O  0.16382013  0.66639327  0.52834527    -0.65800
O81         O  0.13133250  0.78720651  0.51953508    -1.12400
C82         C  0.05816391  0.70183274  0.38628633     1.05800
O83         O  0.15595829  0.62397522  0.44607474    -0.79000
O84         O  0.15534159  0.69587821  0.40138440    -0.66600
Ni85       Ni  0.11988596  0.83442503  0.58331248     1.34900
C86         C  0.14830741  0.73523233  0.39272410     0.84500
O87         O  0.18496791  0.75573554  0.57136535    -0.79600
O88         O  0.15387043  0.81312031  0.62464572    -0.89800
C89         C  0.16957224  0.62969049  0.49044056     0.84100
O90         O  0.08507397  0.79427934  0.59877716    -0.68000
O91         O  0.08566576  0.67627335  0.37475535    -0.87300
C92         C  0.09057554  0.75324965  0.60447331     0.84900
C93         C  0.18110362  0.78720036  0.61461239     1.06500
H94         H  0.09186351  0.68668289  0.49677312     0.38300
O95         O  0.10938176  0.70044856  0.47956924    -1.10000
O96         O  0.12221882  0.76078588  0.41441929    -0.66600
Ni97       Ni  0.09301917  0.76025595  0.47415398     1.26300
O98         O  0.11657772  0.72707605  0.58354388    -0.66900
O99         O  0.05486089  0.73128452  0.43068063    -0.79200
C100        C  0.07115639  0.85824846  0.50794875     0.84300
O101        O  0.07574504  0.82045899  0.47112455    -0.66300
Ni102      Ni  0.12078131  0.65441049  0.41526950     1.27400
Ni103      Ni  0.14729654  0.72720456  0.52566277     1.26100
H104        H  0.14890248  0.80029227  0.50183856     0.38800
C105        C  0.44357887  0.09225736  0.48058058     0.01100
C106        C  0.47817162  0.09942504  0.50008798     0.03900
C107        C  0.99855679  0.06008769  0.50275028    -0.12100
C108        C  0.48424522  0.01365009  0.48669048     0.23200
C109        C  0.44980372  0.00640639  0.46725055    -0.12700
C110        C  0.42950848  0.04561101  0.46410914     0.04600
C111        C  0.00533868  0.97237963  0.49081059     0.27100
C112        C  0.02689692  0.94760177  0.44961210    -0.13400
C113        C  0.04837593  0.91007248  0.45461002     0.05100
C114        C  0.04758905  0.89623003  0.50065081    -0.09400
C115        C  0.02387461  0.91920431  0.54046845     0.06000
C116        C  0.00333119  0.95763847  0.53578997    -0.13700
Br117      Br  0.43067984  0.94249559  0.44497146    -0.05800
Br118      Br  0.99845345  0.16264529  0.52125094    -0.00200
Br119      Br  0.07917407  0.87927197  0.39830331     0.00300
Br120      Br  0.97166525  0.98981913  0.59051716    -0.04100
Br121      Br  0.38191576  0.03551785  0.43909999     0.00400
Br122      Br  0.04625370  0.06945235  0.52775988    -0.03400
Br123      Br  0.02629002  0.96490256  0.38592688    -0.04300
Br124      Br  0.01717533  0.89642608  0.60022453    -0.00300
C125        C  0.31351597  0.41281627  0.52098261     0.01100
C126        C  0.32544634  0.46055742  0.53500981     0.03900
C127        C  0.30247120  0.49746594  0.53239659    -0.12100
C128        C  0.26750185  0.48666989  0.51602831     0.23200
C129        C  0.25554635  0.43898675  0.50272766    -0.12700
C130        C  0.27824267  0.40234137  0.50645427     0.04600
C131        C  0.24338510  0.52489400  0.51097840     0.27100
C132        C  0.21736926  0.54290294  0.54851165    -0.13400
C133        C  0.19210484  0.57529221  0.54073643     0.05100
C134        C  0.19431416  0.59263538  0.49714354    -0.09400
C135        C  0.22109900  0.57519355  0.46017736     0.06000
C136        C  0.24500845  0.54077471  0.46667492    -0.13700
Br137      Br  0.20831307  0.42364413  0.47758490    -0.05800
Br138      Br  0.37336294  0.47526117  0.55703349    -0.00200
Br139      Br  0.15296201  0.59246158  0.58768840     0.00300
Br140      Br  0.28000371  0.51463792  0.41451044    -0.04100
Br141      Br  0.26021412  0.33837912  0.49537201     0.00400
Br142      Br  0.31907094  0.56260157  0.54966861    -0.03400
Br143      Br  0.21659285  0.52304583  0.61063459    -0.04300
Br144      Br  0.22633298  0.59897781  0.40092517    -0.00300
C145        C  0.45093771  0.72998952  0.84372638     0.01100
C146        C  0.45978512  0.68652613  0.80602815     0.03900
C147        C  0.48246674  0.68684268  0.76510620    -0.12100
C148        C  0.49812892  0.72973656  0.76294605     0.23200
C149        C  0.49028319  0.77284859  0.80066816    -0.12700
C150        C  0.46579041  0.77349094  0.83968027     0.04600
C151        C  0.02167455  0.73010426  0.71955449     0.27100
C152        C  0.05796779  0.72343253  0.72366126    -0.13400
C153        C  0.08056315  0.72696100  0.68380670     0.05100
C154        C  0.06686080  0.73782196  0.63991065    -0.09400
C155        C  0.03020832  0.74174499  0.63473647     0.06000
C156        C  0.50772285  0.73828014  0.67465475    -0.13700
Br157      Br  0.01250166  0.83153330  0.79751982    -0.05800
Br158      Br  0.44185352  0.62567635  0.80961137    -0.00200
Br159      Br  0.13036204  0.72042248  0.69189836     0.00300
Br160      Br  0.45784534  0.74715263  0.66938240    -0.04100
Br161      Br  0.44972593  0.83531001  0.88172202     0.00400
Br162      Br  0.49155680  0.62869484  0.71059498    -0.03400
Br163      Br  0.07671769  0.71240438  0.78557018    -0.04300
Br164      Br  0.51067044  0.75122471  0.57251802    -0.00300
C165        C  0.03068346  0.69962300  0.34556937     0.01100
C166        C  0.00780313  0.73903930  0.34902609     0.03900
C167        C  0.98606899  0.73967113  0.30714789    -0.12100
C168        C  0.98648026  0.70147976  0.26150456     0.23200
C169        C  0.50682000  0.66077421  0.25879091    -0.12700
C170        C  0.02834140  0.65929916  0.30079051     0.04600
C171        C  0.46608750  0.70569408  0.21623341     0.27100
C172        C  0.43079910  0.69079679  0.20976147    -0.13400
C173        C  0.40944235  0.70410587  0.17367287     0.05100
C174        C  0.42327639  0.73319878  0.14479000    -0.09400
C175        C  0.45918648  0.74520098  0.14888368     0.06000
C176        C  0.98054781  0.73149144  0.18445315    -0.13700
Br177      Br  0.50572761  0.60779856  0.19638362    -0.05800
Br178      Br  0.00486871  0.79375709  0.40959882    -0.00200
Br179      Br  0.36069371  0.68547733  0.16698459     0.00300
Br180      Br  0.02931027  0.75000249  0.19187437    -0.04100
Br181      Br  0.55187360  0.59987196  0.29733280     0.00400
Br182      Br  0.95596898  0.79401829  0.31116145    -0.03400
Br183      Br  0.41130916  0.65514739  0.25310826    -0.04300
Br184      Br  0.97897951  0.78168009  0.10655737    -0.00300
C185        C  0.20752446  0.79278338  0.65668323     0.01100
C186        C  0.21537659  0.83889392  0.69032149     0.03900
C187        C  0.23633079  0.84381830  0.73457413    -0.12100
C188        C  0.24899165  0.80297627  0.74610869     0.23200
C189        C  0.24175682  0.75725441  0.71264782    -0.12700
C190        C  0.22225101  0.75217172  0.66727339     0.04600
C191        C  0.27229321  0.80719247  0.79110662     0.27100
C192        C  0.30868645  0.80361655  0.78314264    -0.13400
C193        C  0.33064659  0.79512402  0.82125916     0.05100
C194        C  0.31658820  0.79258793  0.86875650    -0.09400
C195        C  0.28044206  0.80036456  0.87822320     0.06000
C196        C  0.25821872  0.80699252  0.83918073    -0.13700
Br197      Br  0.25809853  0.70120056  0.73009650    -0.05800
Br198      Br  0.19933801  0.89597180  0.67495069    -0.00200
Br199      Br  0.37885897  0.78017360  0.80427496     0.00300
Br200      Br  0.20821004  0.81142428  0.84946627    -0.04100
Br201      Br  0.21623919  0.68885744  0.62106740     0.00400
Br202      Br  0.24785859  0.90630214  0.77985694    -0.03400
Br203      Br  0.32780513  0.80554786  0.71751756    -0.04300
Br204      Br  0.26124800  0.79864998  0.94355203    -0.00300
C205        C  0.16998035  0.74930239  0.35345436     0.01100
C206        C  0.18198342  0.71340288  0.30909899     0.03900
C207        C  0.20470122  0.72525418  0.27380152    -0.12100
C208        C  0.21311044  0.77332493  0.27927923     0.23200
C209        C  0.19959631  0.80956313  0.32127828    -0.12700
C210        C  0.17924054  0.79760348  0.35932456     0.04600
C211        C  0.23720919  0.78513860  0.24155978     0.27100
C212        C  0.27264383  0.79583723  0.25483948    -0.13400
C213        C  0.29630658  0.80259644  0.21775564     0.05100
C214        C  0.28498541  0.79642206  0.16642547    -0.09400
C215        C  0.24933983  0.78698525  0.15348670     0.06000
C216        C  0.22536370  0.78243187  0.19133473    -0.13700
Br217      Br  0.20954205  0.87561893  0.32651414    -0.05800
Br218      Br  0.16605678  0.64777780  0.29344161    -0.00200
Br219      Br  0.34473610  0.81750596  0.23712190     0.00300
Br220      Br  0.17629400  0.77181545  0.17447064    -0.04100
Br221      Br  0.16698213  0.84752331  0.42086464     0.00400
Br222      Br  0.22534510  0.67524959  0.21841846    -0.03400
Br223      Br  0.28919787  0.79873283  0.32323631    -0.04300
Br224      Br  0.23333904  0.78034682  0.08397377    -0.00300
C225        C  0.47354223  0.27521950  0.64370933     0.01100
C226        C  0.50032010  0.30924398  0.66162238     0.03900
C227        C  0.52300367  0.30495603  0.70107941    -0.12100
C228        C  0.51943228  0.26596619  0.72142334     0.23200
C229        C  0.49333865  0.23127652  0.70255975    -0.12700
C230        C  0.47008439  0.23617389  0.66432794     0.04600
C231        C  0.04287311  0.26102693  0.76295560     0.27100
C232        C  0.07418669  0.23504294  0.75010535    -0.13400
C233        C  0.09465508  0.22567109  0.78919500     0.05100
C234        C  0.08383716  0.24234729  0.84127044    -0.09400
C235        C  0.05296511  0.26956254  0.85418431     0.06000
C236        C  0.53226756  0.27839675  0.81489163    -0.13700
Br237      Br  0.98918689  0.17746561  0.73010163    -0.05800
Br238      Br  0.50662672  0.36052066  0.63086595    -0.00200
Br239      Br  0.13743377  0.18970161  0.77087296     0.00300
Br240      Br  0.48837485  0.31213476  0.83151544    -0.04100
Br241      Br  0.43219843  0.19064893  0.64331035     0.00400
Br242      Br  0.55855097  0.35265056  0.72809471    -0.03400
Br243      Br  0.08798245  0.21042501  0.67855218    -0.04300
Br244      Br  0.53824800  0.29290982  0.92514521    -0.00300
C245        C  0.42536336  0.26567611  0.34855285     0.01100
C246        C  0.41108614  0.26017679  0.29895854     0.03900
C247        C  0.43177493  0.26906686  0.25981230    -0.12100
C248        C  0.46710518  0.28236550  0.26962298     0.23200
C249        C  0.48098394  0.29030932  0.31981618    -0.12700
C250        C  0.46011777  0.28186965  0.35927867     0.04600
C251        C  0.99064208  0.28136513  0.22570023     0.27100
C252        C  0.00833495  0.23871676  0.20070055    -0.13400
C253        C  0.03149247  0.23712435  0.15986124     0.05100
C254        C  0.03629016  0.27796318  0.14246821    -0.09400
C255        C  0.51770901  0.32039009  0.16689112     0.06000
C256        C  0.49502534  0.32203005  0.20846913    -0.13700
Br257      Br  0.52904334  0.31063650  0.33346790    -0.05800
Br258      Br  0.36404861  0.23676854  0.28281181    -0.00200
Br259      Br  0.05894021  0.18004063  0.13209981     0.00300
Br260      Br  0.46985494  0.37984898  0.24214121    -0.04100
Br261      Br  0.47952962  0.28989028  0.42714679     0.00400
Br262      Br  0.41241890  0.26047685  0.19165968    -0.03400
Br263      Br  0.00093881  0.18236957  0.22315565    -0.04300
Br264      Br  0.52279042  0.37642855  0.14335747    -0.00300
C265        C  0.22160571  0.21533789  0.84487226     0.01100
C266        C  0.24666537  0.17895691  0.82610344     0.03900
C267        C  0.27153320  0.18309535  0.78902534    -0.12100
C268        C  0.27049338  0.22257551  0.76905397     0.23200
C269        C  0.24498529  0.25830139  0.78683050    -0.12700
C270        C  0.22096774  0.25513752  0.82506266     0.04600
C271        C  0.29543204  0.22677404  0.72841943     0.27100
C272        C  0.32605003  0.25452242  0.74236236    -0.13400
C273        C  0.34647200  0.26563945  0.70408964     0.05100
C274        C  0.33678694  0.24809103  0.65143295    -0.09400
C275        C  0.30692544  0.21871281  0.63739614     0.06000
C276        C  0.28628094  0.20812883  0.67584953    -0.13700
Br277      Br  0.24251764  0.31118689  0.75751183    -0.05800
Br278      Br  0.24734657  0.12392730  0.85177727    -0.00200
Br279      Br  0.38738650  0.30581850  0.72431665     0.00300
Br280      Br  0.24436132  0.17000853  0.65704680    -0.04100
Br281      Br  0.18599039  0.30448904  0.84762804     0.00400
Br282      Br  0.30721155  0.13507620  0.76561597    -0.03400
Br283      Br  0.33926862  0.27843632  0.81423298    -0.04300
Br284      Br  0.29250988  0.19644686  0.56607218    -0.00300
C285        C  0.28671781  0.22560913  0.34963631     0.01100
C286        C  0.28016150  0.26804267  0.33590292     0.03900
C287        C  0.25701211  0.26730816  0.29518327    -0.12100
C288        C  0.24043871  0.22438457  0.26756228     0.23200
C289        C  0.24630647  0.18227929  0.28156126    -0.12700
C290        C  0.26932109  0.18282074  0.32252238     0.04600
C291        C  0.21637355  0.22465863  0.22451218     0.27100
C292        C  0.18242828  0.24349447  0.23597361    -0.13400
C293        C  0.16204812  0.25366860  0.19720290     0.05100
C294        C  0.17467611  0.24232838  0.14607058    -0.09400
C295        C  0.20777274  0.22082535  0.13387511     0.06000
C296        C  0.22879917  0.21239283  0.17319871    -0.13700
Br297      Br  0.22273201  0.12397026  0.24436745    -0.05800
Br298      Br  0.30511737  0.32663888  0.36863410    -0.00200
Br299      Br  0.11801682  0.28651191  0.21535656     0.00300
Br300      Br  0.27527455  0.18642888  0.15748444    -0.04100
Br301      Br  0.27621848  0.12483919  0.34191898     0.00400
Br302      Br  0.24850516  0.32514230  0.27599740    -0.03400
Br303      Br  0.16466920  0.25733536  0.30560589    -0.04300
Br304      Br  0.22518242  0.20630301  0.06412708    -0.00300
C305        C  0.06896412  0.08151672  0.98871676     0.01100
C306        C  0.03819847  0.06517371  0.95984059     0.03900
C307        C  0.01824063  0.02789989  0.96916057    -0.12100
C308        C  0.02767413  0.00842985  0.00930679     0.23200
C309        C  0.05826505  0.02486386  0.03844582    -0.12700
C310        C  0.07922216  0.06056429  0.02748421     0.04600
C311        C  0.50405549  0.97265777  0.02198541     0.27100
C312        C  0.47313340  0.98823415  0.05044327    -0.13400
C313        C  0.44742085  0.95481814  0.05452811     0.05100
C314        C  0.45323652  0.90546274  0.03223217    -0.09400
C315        C  0.48578274  0.88976166  0.00873660     0.06000
C316        C  0.01065997  0.92326723  0.00226617    -0.13700
Br317      Br  0.07083682  0.99942710  0.09432428    -0.05800
Br318      Br  0.02146103  0.09657870  0.91068637    -0.00200
Br319      Br  0.40363920  0.97680759  0.08874587     0.00300
Br320      Br  0.05342075  0.90135147  0.96510000    -0.04100
Br321      Br  0.12247352  0.08009310  0.06495823     0.00400
Br322      Br  0.47745001  0.00361032  0.92732018    -0.03400
Br323      Br  0.46605043  0.05560934  0.08326797    -0.04300
Br324      Br  0.99693753  0.82255205  0.98800543    -0.00300
C325        C  0.19237044  0.40390980  0.00132538     0.01100
C326        C  0.22847923  0.40621108  0.01278267     0.03900
C327        C  0.24850467  0.44575262  0.00939350    -0.12100
C328        C  0.23244261  0.48341768  0.99488685     0.23200
C329        C  0.19620292  0.48107875  0.98363549    -0.12700
C330        C  0.17635581  0.44105618  0.98610746     0.04600
C331        C  0.25369561  0.52546475  0.99180963     0.27100
C332        C  0.25432963  0.56745025  0.03360154    -0.13400
C333        C  0.27480151  0.60704879  0.03121935     0.05100
C334        C  0.29576777  0.60477273  0.98709426    -0.09400
C335        C  0.29514955  0.56192519  0.94533272     0.06000
C336        C  0.27386483  0.52299413  0.94757106    -0.13700
Br337      Br  0.17360039  0.53332962  0.96623592    -0.05800
Br338      Br  0.25040650  0.35479073  0.03278522    -0.00200
Br339      Br  0.27201894  0.66442035  0.08838236     0.00300
Br340      Br  0.27229248  0.46554261  0.88992085    -0.04100
Br341      Br  0.12707571  0.43700993  0.96922271     0.00400
Br342      Br  0.29785655  0.44893297  0.02568429    -0.03400
Br343      Br  0.22691773  0.57019523  0.09445314    -0.04300
Br344      Br  0.32486568  0.55408746  0.88557471    -0.00300
O345        O  0.60089954  0.11978917  0.93583250    -0.81100
O346        O  0.66433928  0.32902256  0.96797804    -0.65800
O347        O  0.64403365  0.20261782  0.97337787    -1.12400
C348        C  0.56335508  0.27769148  0.10296221     1.05800
O349        O  0.66112121  0.36448650  0.05246789    -0.79000
O350        O  0.65613081  0.29881063  0.10523578    -0.66600
Ni351      Ni  0.63748630  0.15267482  0.90925042     1.34900
C352        C  0.65394392  0.25589822  0.10661456     0.84500
O353        O  0.69380791  0.24596912  0.92553502    -0.79600
O354        O  0.67421795  0.17661066  0.87359961    -0.89800
C355        C  0.67115353  0.36359168  0.00740147     0.84100
O356        O  0.60312154  0.18667604  0.88291082    -0.68000
O357        O  0.58539698  0.31192219  0.11308254    -0.87300
C358        C  0.60457709  0.22963256  0.88125570     0.84900
C359        C  0.69538460  0.21194300  0.88405142     1.06500
H360        H  0.59648221  0.29538318  0.99656721     0.38300
O361        O  0.61525091  0.28473388  0.01446336    -1.10000
O362        O  0.63363267  0.22490994  0.07747098    -0.66600
Ni363      Ni  0.60430849  0.22194143  0.01799864     1.26300
O364        O  0.62446724  0.26138135  0.91027233    -0.66900
O365        O  0.56476272  0.24267832  0.06208647    -0.79200
C366        C  0.58922589  0.12226822  0.98068688     0.84300
O367        O  0.59366231  0.15875330  0.01909031    -0.66300
Ni368      Ni  0.62307799  0.33408465  0.07839356     1.27400
Ni369      Ni  0.65442317  0.26560636  0.96945046     1.26100
H370        H  0.66288842  0.19258390  0.99197550     0.38800
O371        O  0.82200029  0.65495857  0.94091475    -0.81100
O372        O  0.91127127  0.84626631  0.99168171    -0.65800
O373        O  0.87839276  0.71959830  0.97644660    -1.12400
C374        C  0.81114337  0.79569609  0.12605924     1.05800
O375        O  0.91736176  0.86403651  0.07672516    -0.79000
O376        O  0.89850638  0.80040053  0.12677013    -0.66600
Ni377      Ni  0.86127586  0.68091857  0.91147393     1.34900
C378        C  0.89979865  0.75505537  0.11442087     0.83700
O379        O  0.92863378  0.76109846  0.92907005    -0.79600
O380        O  0.89904316  0.70130529  0.87443634    -0.89800
C381        C  0.92545867  0.87036811  0.03361859     0.84100
O382        O  0.83100320  0.72774342  0.89886658    -0.68000
O383        O  0.83090729  0.83206411  0.13213940    -0.87300
C384        C  0.83758408  0.77105623  0.90228958     0.84900
C385        C  0.92487143  0.73054205  0.88510291     1.06500
H386        H  0.84050725  0.81630739  0.02243468     0.38300
O387        O  0.85991542  0.80160742  0.03502380    -1.10000
O388        O  0.88181412  0.72785708  0.07801153    -0.66600
Ni389      Ni  0.84593885  0.73785817  0.03212784     1.26300
O390        O  0.86204644  0.79494131  0.93074995    -0.66900
O391        O  0.81392468  0.75762063  0.08864631    -0.79200
C392        C  0.81810942  0.64645656  0.98428342     0.84300
O393        O  0.83223141  0.67327259  0.02492307    -0.66300
Ni394      Ni  0.87341428  0.84494600  0.10055651     1.27400
Ni395      Ni  0.89435527  0.78270174  0.98172106     1.26100
H396        H  0.89764721  0.70236469  0.98589838     0.38800
O397        O  0.85045080  0.37326507  0.56520005    -0.81100
O398        O  0.91447021  0.16547664  0.51753743    -0.65800
O399        O  0.89480426  0.29392710  0.52043074    -1.12400
C400        C  0.81444530  0.22472306  0.38792311     1.05800
O401        O  0.91299990  0.13532895  0.43214547    -0.79000
O402        O  0.90803574  0.20602318  0.38578041    -0.66600
Ni403      Ni  0.88976152  0.34203221  0.58629711     1.34900
C404        C  0.90496855  0.24947425  0.38667824     0.84500
O405        O  0.94372582  0.24677665  0.56514309    -0.79600
O406        O  0.92869934  0.31841445  0.61710514    -0.89800
C407        C  0.92232685  0.13327227  0.47664081     0.84100
O408        O  0.85820613  0.30676813  0.61555529    -0.68000
O409        O  0.83722393  0.19152069  0.37519394    -0.87300
C410        C  0.85731135  0.26254022  0.61203644     0.84900
C411        C  0.94763877  0.28108326  0.60578387     1.06500
H412        H  0.84731061  0.20041708  0.48998774     0.38300
O413        O  0.86617776  0.21287237  0.47391946    -1.10000
O414        O  0.88395966  0.27853980  0.41673724    -0.66600
Ni415      Ni  0.85498997  0.27683806  0.47535250     1.26300
O416        O  0.87425135  0.23080064  0.57805788    -0.66900
O417        O  0.81553569  0.25773783  0.43054424    -0.79200
C418        C  0.83753749  0.37372578  0.52206170     0.84300
O419        O  0.84348469  0.34124912  0.48037303    -0.66300
Ni420      Ni  0.87498101  0.16729772  0.40798946     1.27400
Ni421      Ni  0.90478032  0.22980720  0.52027139     1.26100
H422        H  0.91361466  0.30445655  0.50247490     0.38800
O423        O  0.58546234  0.86493441  0.55193826    -0.81100
O424        O  0.66380976  0.66639606  0.52830049    -0.65800
O425        O  0.63132007  0.78722478  0.51954794    -1.12400
C426        C  0.55811992  0.70187011  0.38632004     1.05800
O427        O  0.65597606  0.62402149  0.44601123    -0.79000
O428        O  0.65529679  0.69592050  0.40131105    -0.66600
Ni429      Ni  0.61988007  0.83442319  0.58334523     1.34900
C430        C  0.64825218  0.73528886  0.39268928     0.84500
O431        O  0.68496333  0.75572843  0.57134158    -0.79600
O432        O  0.65386820  0.81309444  0.62465236    -0.89800
C433        C  0.66957992  0.62971444  0.49038034     0.84100
O434        O  0.58506837  0.79426604  0.59879165    -0.68000
O435        O  0.58561297  0.67629235  0.37477538    -0.87300
C436        C  0.59057143  0.75322723  0.60446272     0.84900
C437        C  0.68110398  0.78718171  0.61459706     1.06500
H438        H  0.59185267  0.68669854  0.49675634     0.38300
O439        O  0.60936773  0.70047199  0.47955490    -1.10000
O440        O  0.62217774  0.76084321  0.41443260    -0.66600
Ni441      Ni  0.59299871  0.76029193  0.47417532     1.26300
O442        O  0.61657466  0.72706224  0.58352344    -0.66900
O443        O  0.55482931  0.73134245  0.43070727    -0.79200
C444        C  0.57114857  0.85829037  0.50801674     0.84300
O445        O  0.57572934  0.82050720  0.47118225    -0.66300
Ni446      Ni  0.62076275  0.65444287  0.41524550     1.27400
Ni447      Ni  0.64728662  0.72721320  0.52564396     1.26100
H448        H  0.64888675  0.80031808  0.50185361     0.38800
C449        C  0.94361128  0.09226486  0.48055201     0.01100
C450        C  0.97820410  0.09941969  0.50006347     0.03900
C451        C  0.49852801  0.06010317  0.50278910    -0.12100
C452        C  0.98427370  0.01363486  0.48662348     0.23200
C453        C  0.94983376  0.00640404  0.46717493    -0.12700
C454        C  0.92954019  0.04561889  0.46405701     0.04600
C455        C  0.50531752  0.97240713  0.49088372     0.27100
C456        C  0.52688340  0.94764353  0.44969025    -0.13400
C457        C  0.54837898  0.91013511  0.45469730     0.05100
C458        C  0.54758783  0.89628270  0.50073241    -0.09400
C459        C  0.52386812  0.91924599  0.54054757     0.06000
C460        C  0.50331632  0.95767126  0.53586635    -0.13700
Br461      Br  0.93070766  0.94249575  0.44485547    -0.05800
Br462      Br  0.49841543  0.16265414  0.52125225    -0.00200
Br463      Br  0.57920628  0.87938061  0.39841075     0.00300
Br464      Br  0.47164598  0.98984509  0.59059102    -0.04100
Br465      Br  0.88194525  0.03553882  0.43905444     0.00400
Br466      Br  0.54623036  0.06948190  0.52777437    -0.03400
Br467      Br  0.52625963  0.96493081  0.38599660    -0.04300
Br468      Br  0.51717377  0.89646708  0.60030395    -0.00300
C469        C  0.81351157  0.41282674  0.52095723     0.01100
C470        C  0.82543810  0.46057035  0.53499211     0.03900
C471        C  0.80246477  0.49747576  0.53236122    -0.12100
C472        C  0.76750068  0.48667522  0.51596628     0.23200
C473        C  0.75555025  0.43898936  0.50265007    -0.12700
C474        C  0.77824276  0.40234786  0.50640081     0.04600
C475        C  0.74338367  0.52489921  0.51091240     0.27100
C476        C  0.71735699  0.54289480  0.54843216    -0.13400
C477        C  0.69210302  0.57530031  0.54066362     0.05100
C478        C  0.69432237  0.59265587  0.49707916    -0.09400
C479        C  0.72111524  0.57522225  0.46012357     0.06000
C480        C  0.74502238  0.54080013  0.46662303    -0.13700
Br481      Br  0.70833181  0.42363672  0.47744341    -0.05800
Br482      Br  0.87334760  0.47528327  0.55704928    -0.00200
Br483      Br  0.65296612  0.59248897  0.58762623     0.00300
Br484      Br  0.78003671  0.51468594  0.41448124    -0.04100
Br485      Br  0.76021158  0.33838716  0.49531805     0.00400
Br486      Br  0.81906237  0.56261283  0.54963727    -0.03400
Br487      Br  0.71654787  0.52299257  0.61052661    -0.04300
Br488      Br  0.72636622  0.59902623  0.40088823    -0.00300
C489        C  0.95093624  0.73007359  0.84377869     0.01100
C490        C  0.95977246  0.68661347  0.80606595     0.03900
C491        C  0.98245266  0.68693071  0.76514185    -0.12100
C492        C  0.99813140  0.72981910  0.76299631     0.23200
C493        C  0.99029641  0.77292812  0.80073070    -0.12700
C494        C  0.96580197  0.77357217  0.83974348     0.04600
C495        C  0.52167091  0.73002336  0.71950644     0.27100
C496        C  0.55796484  0.72336534  0.72362120    -0.13400
C497        C  0.58056106  0.72690896  0.68377479     0.05100
C498        C  0.56685832  0.73777578  0.63988273    -0.09400
C499        C  0.53020539  0.74167743  0.63469611     0.06000
C500        C  0.00772742  0.73836766  0.67470545    -0.13700
Br501      Br  0.51247618  0.83145864  0.79744871    -0.05800
Br502      Br  0.94182816  0.62576443  0.80963146    -0.00200
Br503      Br  0.63036059  0.72037929  0.69186992     0.00300
Br504      Br  0.95785349  0.74727980  0.66945174    -0.04100
Br505      Br  0.94975232  0.83539229  0.88179910     0.00400
Br506      Br  0.99151207  0.62879229  0.71060205    -0.03400
Br507      Br  0.57671317  0.71233384  0.78552954    -0.04300
Br508      Br  0.01067003  0.75129567  0.57256150    -0.00300
C509        C  0.53063508  0.69964472  0.34561233     0.01100
C510        C  0.50785470  0.73913060  0.34893708     0.03900
C511        C  0.48614941  0.73973115  0.30702035    -0.12100
C512        C  0.48647320  0.70141822  0.26148264     0.23200
C513        C  0.00693793  0.66090192  0.25866281    -0.12700
C514        C  0.52820480  0.65922270  0.30095457     0.04600
C515        C  0.96608710  0.70582946  0.21629154     0.27100
C516        C  0.93082604  0.69081810  0.20972649    -0.13400
C517        C  0.90946043  0.70412730  0.17364573     0.05100
C518        C  0.92325906  0.73332765  0.14485673    -0.09400
C519        C  0.95914703  0.74545992  0.14905354     0.06000
C520        C  0.48058116  0.73122045  0.18428221    -0.13700
Br521      Br  0.00596559  0.60809015  0.19609710    -0.05800
Br522      Br  0.50501490  0.79396861  0.40938620    -0.00200
Br523      Br  0.86074315  0.68534446  0.16684621     0.00300
Br524      Br  0.52938281  0.74954084  0.19155317    -0.04100
Br525      Br  0.05216769  0.60000165  0.29691658     0.00400
Br526      Br  0.45621504  0.79419591  0.31083355    -0.03400
Br527      Br  0.91138305  0.65499929  0.25293473    -0.04300
Br528      Br  0.47905090  0.78127048  0.10625719    -0.00300
C529        C  0.70753395  0.79276066  0.65665284     0.01100
C530        C  0.71538874  0.83887013  0.69028853     0.03900
C531        C  0.73633868  0.84379248  0.73454428    -0.12100
C532        C  0.74899514  0.80294854  0.74608031     0.23200
C533        C  0.74176394  0.75722780  0.71261449    -0.12700
C534        C  0.72226203  0.75214804  0.66723740     0.04600
C535        C  0.77228312  0.80716237  0.79109151     0.27100
C536        C  0.80868021  0.80362110  0.78315805    -0.13400
C537        C  0.83063394  0.79514960  0.82129303     0.05100
C538        C  0.81656336  0.79259237  0.86877549    -0.09400
C539        C  0.78040951  0.80032126  0.87820683     0.06000
C540        C  0.75819405  0.80692856  0.83914622    -0.13700
Br541      Br  0.75810047  0.70117218  0.73006350    -0.05800
Br542      Br  0.69935908  0.89594693  0.67490619    -0.00200
Br543      Br  0.87885930  0.78025535  0.80435318     0.00300
Br544      Br  0.70817803  0.81127222  0.84937370    -0.04100
Br545      Br  0.71625998  0.68883902  0.62101643     0.00400
Br546      Br  0.74786081  0.90627575  0.77983236    -0.03400
Br547      Br  0.82781572  0.80556262  0.71754622    -0.04300
Br548      Br  0.76119606  0.79857382  0.94351322    -0.00300
C549        C  0.66989789  0.74938248  0.35341040     0.01100
C550        C  0.68184811  0.71350648  0.30899997     0.03900
C551        C  0.70455570  0.72536936  0.27369866    -0.12100
C552        C  0.71300495  0.77343825  0.27923310     0.23200
C553        C  0.69953580  0.80966071  0.32128807    -0.12700
C554        C  0.67918888  0.79768111  0.35933096     0.04600
C555        C  0.73711953  0.78525649  0.24153410     0.27100
C556        C  0.77256651  0.79585926  0.25480836    -0.13400
C557        C  0.79624695  0.80258804  0.21773189     0.05100
C558        C  0.78492766  0.79648910  0.16641685    -0.09400
C559        C  0.74927467  0.78713907  0.15347874     0.06000
C560        C  0.72528259  0.78261352  0.19132005    -0.13700
Br561      Br  0.70954237  0.87571933  0.32661751    -0.05800
Br562      Br  0.66586345  0.64790370  0.29328566    -0.00200
Br563      Br  0.84469840  0.81733617  0.23707431     0.00300
Br564      Br  0.67620505  0.77211293  0.17445672    -0.04100
Br565      Br  0.66698651  0.84756192  0.42093405     0.00400
Br566      Br  0.72514401  0.67537788  0.21824675    -0.03400
Br567      Br  0.78911297  0.79865432  0.32318147    -0.04300
Br568      Br  0.73329149  0.78056256  0.08397096    -0.00300
C569        C  0.97355529  0.27526845  0.64371163     0.01100
C570        C  0.00031616  0.30931570  0.66164901     0.03900
C571        C  0.02300157  0.30503246  0.70110709    -0.12100
C572        C  0.01944470  0.26603147  0.72143638     0.23200
C573        C  0.99336725  0.23132211  0.70255086    -0.12700
C574        C  0.97011294  0.23621192  0.66431531     0.04600
C575        C  0.54286316  0.26095432  0.76293523     0.27100
C576        C  0.57416536  0.23494473  0.75007722    -0.13400
C577        C  0.59464617  0.22559557  0.78916741     0.05100
C578        C  0.58384440  0.24230420  0.84124857    -0.09400
C579        C  0.55297439  0.26952311  0.85416549     0.06000
C580        C  0.03226373  0.27844378  0.81490850    -0.13700
Br581      Br  0.48913483  0.17744035  0.73013913    -0.05800
Br582      Br  0.00659339  0.36062452  0.63093281    -0.00200
Br583      Br  0.63741966  0.18961395  0.77083919     0.00300
Br584      Br  0.98836251  0.31216115  0.83152382    -0.04100
Br585      Br  0.93224310  0.19066458  0.64327763     0.00400
Br586      Br  0.05853542  0.35274344  0.72813862    -0.03400
Br587      Br  0.58792379  0.21025365  0.67851474    -0.04300
Br588      Br  0.03823458  0.29294576  0.92516266    -0.00300
C589        C  0.92535539  0.26566816  0.34853411     0.01100
C590        C  0.91108360  0.26016541  0.29893569     0.03900
C591        C  0.93177838  0.26905170  0.25979316    -0.12100
C592        C  0.96710669  0.28235682  0.26961578     0.23200
C593        C  0.98098162  0.29029329  0.31980971    -0.12700
C594        C  0.96011121  0.28185177  0.35926545     0.04600
C595        C  0.49063620  0.28136296  0.22569699     0.27100
C596        C  0.50830207  0.23869901  0.20067023    -0.13400
C597        C  0.53146187  0.23709873  0.15982950     0.05100
C598        C  0.53628175  0.27794299  0.14245173    -0.09400
C599        C  0.01770071  0.32039887  0.16689098     0.06000
C600        C  0.99501153  0.32202815  0.20845910    -0.13700
Br601      Br  0.02904505  0.31059980  0.33346822    -0.05800
Br602      Br  0.86404720  0.23675390  0.28277892    -0.00200
Br603      Br  0.55888151  0.17999333  0.13204582     0.00300
Br604      Br  0.96980909  0.37982715  0.24210123    -0.04100
Br605      Br  0.97952219  0.28984373  0.42712904     0.00400
Br606      Br  0.91243603  0.26043765  0.19162766    -0.03400
Br607      Br  0.50086188  0.18233925  0.22308651    -0.04300
Br608      Br  0.02277094  0.37643609  0.14335239    -0.00300
C609        C  0.72161316  0.21533736  0.84485787     0.01100
C610        C  0.74668711  0.17897298  0.82610410     0.03900
C611        C  0.77155361  0.18312003  0.78902801    -0.12100
C612        C  0.77049477  0.22258665  0.76903597     0.23200
C613        C  0.74497214  0.25829539  0.78679714    -0.12700
C614        C  0.72095683  0.25512522  0.82503019     0.04600
C615        C  0.79543399  0.22679080  0.72840348     0.27100
C616        C  0.82604013  0.25456422  0.74234749    -0.13400
C617        C  0.84646975  0.26566271  0.70407122     0.05100
C618        C  0.83679740  0.24808756  0.65141184    -0.09400
C619        C  0.80694474  0.21869083  0.63737549     0.06000
C620        C  0.78629990  0.20810925  0.67583090    -0.13700
Br621      Br  0.74248671  0.31117075  0.75746554    -0.05800
Br622      Br  0.74738774  0.12395264  0.85179246    -0.00200
Br623      Br  0.88738022  0.30584954  0.72429565     0.00300
Br624      Br  0.74440678  0.16993236  0.65702522    -0.04100
Br625      Br  0.68595777  0.30445004  0.84757433     0.00400
Br626      Br  0.80726135  0.13513677  0.76565812    -0.03400
Br627      Br  0.83923211  0.27853720  0.81422390    -0.04300
Br628      Br  0.79254037  0.19639455  0.56604870    -0.00300
C629        C  0.78671177  0.22562080  0.34965123     0.01100
C630        C  0.78016815  0.26805572  0.33591361     0.03900
C631        C  0.75701051  0.26733414  0.29520670    -0.12100
C632        C  0.74042112  0.22441972  0.26759580     0.23200
C633        C  0.74627519  0.18231452  0.28160117    -0.12700
C634        C  0.76929593  0.18284411  0.32255223     0.04600
C635        C  0.71636159  0.22469774  0.22453966     0.27100
C636        C  0.68241891  0.24354677  0.23598962    -0.13400
C637        C  0.66204184  0.25369985  0.19720391     0.05100
C638        C  0.67467143  0.24233157  0.14607096    -0.09400
C639        C  0.70776660  0.22082110  0.13388893     0.06000
C640        C  0.72878830  0.21240313  0.17322518    -0.13700
Br641      Br  0.72267121  0.12402216  0.24443141    -0.05800
Br642      Br  0.80515493  0.32663275  0.36861639    -0.00200
Br643      Br  0.61800969  0.28654715  0.21533413     0.00300
Br644      Br  0.77525706  0.18641156  0.15752325    -0.04100
Br645      Br  0.77617721  0.12486293  0.34195431     0.00400
Br646      Br  0.74851305  0.32517354  0.27602720    -0.03400
Br647      Br  0.66465575  0.25742618  0.30562257    -0.04300
Br648      Br  0.72518090  0.20626883  0.06414090    -0.00300
C649        C  0.56897977  0.08149196  0.98869505     0.01100
C650        C  0.53822260  0.06513303  0.95980293     0.03900
C651        C  0.51826460  0.02785905  0.96912429    -0.12100
C652        C  0.52769584  0.00839242  0.00927439     0.23200
C653        C  0.55828152  0.02483741  0.03842287    -0.12700
C654        C  0.57923231  0.06054979  0.02747307     0.04600
C655        C  0.00402882  0.97270650  0.02202584     0.27100
C656        C  0.97309950  0.98829485  0.05045957    -0.13400
C657        C  0.94737755  0.95488766  0.05453241     0.05100
C658        C  0.95319715  0.90552946  0.03226901    -0.09400
C659        C  0.98575083  0.88981791  0.00880612     0.06000
C660        C  0.51068744  0.92322030  0.00220407    -0.13700
Br661      Br  0.57085802  0.99939368  0.09429384    -0.05800
Br662      Br  0.52149883  0.09651276  0.91061828    -0.00200
Br663      Br  0.90357556  0.97689246  0.08867626     0.00300
Br664      Br  0.55344838  0.90132081  0.96503101    -0.04100
Br665      Br  0.62246745  0.08011201  0.06498107     0.00400
Br666      Br  0.97742330  0.00365622  0.92735996    -0.03400
Br667      Br  0.96601883  0.05567407  0.08326401    -0.04300
Br668      Br  0.49696880  0.82249560  0.98788973    -0.00300
C669        C  0.69237366  0.40391466  0.00134118     0.01100
C670        C  0.72848608  0.40620399  0.01277507     0.03900
C671        C  0.74851017  0.44575682  0.00941193    -0.12100
C672        C  0.73244580  0.48344090  0.99494096     0.23200
C673        C  0.69620329  0.48110866  0.98370395    -0.12700
C674        C  0.67635444  0.44108565  0.98617347     0.04600
C675        C  0.75370118  0.52549118  0.99186689     0.27100
C676        C  0.75429789  0.56750399  0.03362906    -0.13400
C677        C  0.77476025  0.60710935  0.03123594     0.05100
C678        C  0.79577095  0.60480440  0.98714702    -0.09400
C679        C  0.79519751  0.56192793  0.94542387     0.06000
C680        C  0.77390695  0.52299974  0.94765593    -0.13700
Br681      Br  0.67360113  0.53335751  0.96629986    -0.05800
Br682      Br  0.75041944  0.35475430  0.03271610    -0.00200
Br683      Br  0.77189796  0.66453510  0.08831833     0.00300
Br684      Br  0.77237145  0.46552802  0.89002835    -0.04100
Br685      Br  0.62706339  0.43707294  0.96935936     0.00400
Br686      Br  0.79786515  0.44892105  0.02568272    -0.03400
Br687      Br  0.72685162  0.57027737  0.09445603    -0.04300
Br688      Br  0.82498589  0.55405059  0.88573521    -0.00300
loop_ 
_geom_bond_atom_site_label_1 
_geom_bond_atom_site_label_2 
_geom_bond_distance 
_geom_bond_site_symmetry_2 
_ccdc_geom_bond_type 
O1           Ni7   1.946       .  S
O1           C22   1.275       .  A
O2          Ni25   1.903       .  S
O2           C11   1.264   1_556  A
O3           Ni7   1.930       .  S
O3          Ni25   1.915       .  S
O3          Ni19   1.919   1_556  S
O3           H26   0.970       .  S
C4           O21   1.271       .  A
C4           O13   1.273       .  A
C4          C254   1.485       .  S
O5          Ni24   1.936       .  S
O5           C11   1.271       .  A
O6          Ni24   1.901       .  S
O6            C8   1.268       .  A
Ni7          O10   1.943       .  S
Ni7          O12   1.904       .  S
C8           O18   1.274       .  A
C8          C294   1.471       .  S
O9          Ni25   1.899       .  S
O9           C15   1.266       .  A
O10          C15   1.275       .  A
C11         C325   1.477       .  S
O12          C14   1.270       .  A
O13         Ni24   1.929       .  S
C14          O20   1.275       .  A
C14         C234   1.471       .  S
C15         C265   1.483       .  S
H16          O17   0.965   1_556  S
O17         Ni25   1.908   1_554  S
O17         Ni19   1.911       .  S
O17         Ni24   1.925       .  S
O18         Ni19   1.938       .  S
Ni19         O23   1.899       .  S
Ni19         O21   1.911       .  S
O20         Ni25   1.939       .  S
C22          O23   1.265   1_556  A
C22         C305   1.487       .  S
O27         Ni33   1.951       .  S
O27          C48   1.276       .  A
O28         Ni51   1.909       .  S
O28          C37   1.268   1_556  A
O29         Ni33   1.906       .  S
O29         Ni51   1.907       .  S
O29         Ni45   1.904   1_556  S
O29          H52   0.966       .  S
C30          O47   1.273       .  A
C30          O39   1.273       .  A
C30         C214   1.477       .  S
O31         Ni50   1.936       .  S
O31          C37   1.271       .  A
O32         Ni50   1.911       .  S
O32          C34   1.270       .  A
Ni33         O36   1.945       .  S
Ni33         O38   1.896       .  S
C34          O44   1.270       .  A
C34         C174   1.478       .  S
O35         Ni51   1.903       .  S
O35          C41   1.270       .  A
O36          C41   1.280       .  A
C37         C314   1.482       .  S
O38          C40   1.267       .  A
O39         Ni50   1.921       .  S
C40          O46   1.278       .  A
C40         C194   1.480       .  S
C41         C145   1.494       .  S
H42          O43   0.966       .  S
O43         Ni51   1.911   1_554  S
O43         Ni45   1.917       .  S
O43         Ni50   1.924       .  S
O44         Ni45   1.925       .  S
Ni45         O49   1.912       .  S
Ni45         O47   1.912       .  S
O46         Ni51   1.957       .  S
C48          O49   1.268   1_556  A
C48         C334   1.505       .  S
O53         Ni59   1.926       .  S
O53          C74   1.269       .  A
O54         Ni77   1.897       .  S
O54          C63   1.263       .  A
O55         Ni59   1.932       .  S
O55         Ni77   1.911       .  S
O55         Ni71   1.918       .  S
O55          H78   0.966       .  S
C56          O73   1.271       .  A
C56          O65   1.274       .  A
C56         C285   1.484       .  S
O57         Ni76   1.939       .  S
O57          C63   1.272       .  A
O58         Ni76   1.904       .  S
O58          C60   1.269       .  A
Ni59         O62   1.926       .  S
Ni59         O64   1.900       .  S
C60          O70   1.276       .  A
C60         C245   1.476       .  S
O61         Ni77   1.889       .  S
O61          C67   1.263       .  A
O62          C67   1.271       .  A
C63         C105   1.477       .  S
O64          C66   1.269       .  A
O65         Ni76   1.930       .  S
C66          O72   1.277       .  A
C66         C274   1.479       .  S
C67         C225   1.468       .  S
H68          O69   0.965       .  S
O69         Ni77   1.902       .  S
O69         Ni71   1.907       .  S
O69         Ni76   1.920       .  S
O70         Ni71   1.946       .  S
Ni71         O75   1.900       .  S
Ni71         O73   1.909       .  S
O72         Ni77   1.943       .  S
C74          O75   1.266       .  A
C74         C125   1.473       .  S
O79         Ni85   1.918       .  S
O79         C100   1.269       .  A
O80        Ni103   1.908       .  S
O80          C89   1.270       .  A
O81         Ni85   1.921       .  S
O81        Ni103   1.909       .  S
O81         Ni97   1.921       .  S
O81         H104   0.965       .  S
C82          O99   1.264       .  A
C82          O91   1.274       .  A
C82         C165   1.507       .  S
O83        Ni102   1.928       .  S
O83          C89   1.272       .  A
O84        Ni102   1.900       .  S
O84          C86   1.268       .  A
Ni85         O88   1.929       .  S
Ni85         O90   1.897       .  S
C86          O96   1.281       .  A
C86         C205   1.495       .  S
O87        Ni103   1.918       .  S
O87          C93   1.269       .  A
O88          C93   1.269       .  A
C89         C134   1.488       .  S
O90          C92   1.270       .  A
O91        Ni102   1.951       .  S
C92          O98   1.281       .  A
C92         C154   1.481       .  S
C93         C185   1.492       .  S
H94          O95   0.966       .  S
O95        Ni103   1.919       .  S
O95         Ni97   1.902       .  S
O95        Ni102   1.915       .  S
O96         Ni97   1.967       .  S
Ni97        O101   1.904       .  S
Ni97         O99   1.905       .  S
O98        Ni103   1.957       .  S
C100        O101   1.266       .  A
C100        C114   1.486       .  S
C105        C106   1.413       .  A
C105        C110   1.410       .  A
C106        C451   1.407       .  A
C106       Br462   1.928       .  S
C107        C450   1.407       .  A
C107        C452   1.408       .  A
C107       Br122   1.931   1_655  S
C108        C455   1.481   1_545  S
C108        C109   1.407       .  A
C108        C451   1.408       .  A
C109        C110   1.406       .  A
C109       Br117   1.930   1_545  S
C110       Br121   1.929       .  S
C111        C452   1.481   1_465  S
C111        C112   1.406       .  A
C111        C116   1.405       .  A
C112        C113   1.407       .  A
C112       Br123   1.931       .  S
C113        C114   1.417       .  A
C113       Br119   1.929       .  S
C114        C115   1.419       .  A
C115        C116   1.406       .  A
C115       Br124   1.935       .  S
C116       Br120   1.932   1_455  S
Br118       C450   1.928       .  S
C125        C126   1.410       .  A
C125        C130   1.409       .  A
C126        C127   1.408       .  A
C126       Br138   1.930       .  S
C127        C128   1.411       .  A
C127       Br142   1.929       .  S
C128        C131   1.485       .  S
C128        C129   1.409       .  A
C129        C130   1.404       .  A
C129       Br137   1.930       .  S
C130       Br141   1.931       .  S
C131        C132   1.409       .  A
C131        C136   1.406       .  A
C132        C133   1.409       .  A
C132       Br143   1.930       .  S
C133        C134   1.414       .  A
C133       Br139   1.931       .  S
C134        C135   1.418       .  A
C135        C136   1.407       .  A
C135       Br144   1.933       .  S
C136       Br140   1.933       .  S
C145        C146   1.420       .  A
C145        C150   1.424       .  A
C146        C147   1.408       .  A
C146       Br158   1.933       .  S
C147        C148   1.404       .  A
C147       Br162   1.931       .  S
C148        C495   1.482       .  S
C148        C149   1.405       .  A
C149        C150   1.406       .  A
C149       Br501   1.934       .  S
C150       Br161   1.935       .  S
C151        C492   1.482   1_455  S
C151        C152   1.407       .  A
C151        C500   1.407       .  A
C152        C153   1.408       .  A
C152       Br163   1.931       .  S
C153        C154   1.414       .  A
C153       Br159   1.928       .  S
C154        C155   1.413       .  A
C155        C500   1.406       .  A
C155       Br508   1.931       .  S
C156        C495   1.407       .  A
C156        C499   1.406       .  A
C156       Br160   1.931       .  S
Br157       C493   1.934   1_455  S
Br164       C499   1.931       .  S
C165        C166   1.428       .  A
C165        C170   1.426       .  A
C166        C167   1.407   1_455  A
C166       Br178   1.932       .  S
C167        C168   1.403       .  A
C167       Br182   1.939       .  S
C168        C515   1.484       .  S
C168        C513   1.404   1_655  A
C169        C512   1.404       .  A
C169        C514   1.412       .  A
C169       Br177   1.931       .  S
C170        C513   1.412       .  A
C170       Br525   1.934       .  S
C171        C512   1.484       .  S
C171        C172   1.409       .  A
C171        C520   1.408       .  A
C172        C173   1.409       .  A
C172       Br183   1.929       .  S
C173        C174   1.413       .  A
C173       Br179   1.930       .  S
C174        C175   1.410       .  A
C175        C520   1.405       .  A
C175       Br528   1.929       .  S
C176        C515   1.408       .  A
C176        C519   1.405       .  A
C176       Br180   1.930   1_655  S
Br181       C514   1.934       .  S
Br184       C519   1.929       .  S
C185        C186   1.421       .  A
C185        C190   1.416       .  A
C186        C187   1.410       .  A
C186       Br198   1.932       .  S
C187        C188   1.405       .  A
C187       Br202   1.930       .  S
C188        C191   1.482       .  S
C188        C189   1.406       .  A
C189        C190   1.404       .  A
C189       Br197   1.935       .  S
C190       Br201   1.922       .  S
C191        C192   1.405       .  A
C191        C196   1.409       .  A
C192        C193   1.404       .  A
C192       Br203   1.935       .  S
C193        C194   1.414       .  A
C193       Br199   1.916       .  S
C194        C195   1.409       .  A
C195        C196   1.410       .  A
C195       Br204   1.927       .  S
C196       Br200   1.927       .  S
C205        C206   1.422       .  A
C205        C210   1.418       .  A
C206        C207   1.406       .  A
C206       Br218   1.937       .  S
C207        C208   1.406       .  A
C207       Br222   1.932       .  S
C208        C211   1.487       .  S
C208        C209   1.408       .  A
C209        C210   1.412       .  A
C209       Br217   1.931       .  S
C210       Br221   1.926       .  S
C211        C212   1.409       .  A
C211        C216   1.411       .  A
C212        C213   1.406       .  A
C212       Br223   1.932       .  S
C213        C214   1.413       .  A
C213       Br219   1.934       .  S
C214        C215   1.410       .  A
C215        C216   1.408       .  A
C215       Br224   1.931       .  S
C216       Br220   1.929       .  S
C225        C226   1.408       .  A
C225        C230   1.414       .  A
C226        C227   1.406       .  A
C226       Br238   1.928       .  S
C227        C228   1.408       .  A
C227       Br242   1.928       .  S
C228        C575   1.474       .  S
C228        C229   1.405       .  A
C229        C230   1.400       .  A
C229       Br581   1.934       .  S
C230       Br241   1.933       .  S
C231        C572   1.474       .  S
C231        C232   1.405       .  A
C231        C580   1.408       .  A
C232        C233   1.403       .  A
C232       Br243   1.932       .  S
C233        C234   1.412       .  A
C233       Br239   1.928       .  S
C234        C235   1.409       .  A
C235        C580   1.406       .  A
C235       Br588   1.926       .  S
C236        C575   1.408       .  A
C236        C579   1.406       .  A
C236       Br240   1.931       .  S
Br237       C573   1.934       .  S
Br244       C579   1.926       .  S
C245        C246   1.412       .  A
C245        C250   1.408       .  A
C246        C247   1.404       .  A
C246       Br258   1.923       .  S
C247        C248   1.405       .  A
C247       Br262   1.931       .  S
C248        C595   1.483       .  S
C248        C249   1.411       .  A
C249        C250   1.410       .  A
C249       Br257   1.928       .  S
C250       Br261   1.928       .  S
C251        C592   1.483       .  S
C251        C252   1.407   1_655  A
C251        C600   1.407       .  A
C252        C253   1.405       .  A
C252       Br263   1.934       .  S
C253        C254   1.416       .  A
C253       Br259   1.929       .  S
C254        C599   1.416       .  A
C255        C256   1.409       .  A
C255        C598   1.416       .  A
C255       Br264   1.931       .  S
C256        C595   1.407       .  A
C256       Br260   1.929       .  S
C265        C266   1.412       .  A
C265        C270   1.415       .  A
C266        C267   1.412       .  A
C266       Br278   1.928       .  S
C267        C268   1.409       .  A
C267       Br282   1.927       .  S
C268        C271   1.486       .  S
C268        C269   1.407       .  A
C269        C270   1.405       .  A
C269       Br277   1.933       .  S
C270       Br281   1.931       .  S
C271        C272   1.408       .  A
C271        C276   1.410       .  A
C272        C273   1.407       .  A
C272       Br283   1.930       .  S
C273        C274   1.414       .  A
C273       Br279   1.932       .  S
C274        C275   1.409       .  A
C275        C276   1.409       .  A
C275       Br284   1.927       .  S
C276       Br280   1.929       .  S
C285        C286   1.417       .  A
C285        C290   1.416       .  A
C286        C287   1.406       .  A
C286       Br298   1.933       .  S
C287        C288   1.408       .  A
C287       Br302   1.934       .  S
C288        C291   1.483       .  S
C288        C289   1.407       .  A
C289        C290   1.409       .  A
C289       Br297   1.929       .  S
C290       Br301   1.932       .  S
C291        C292   1.407       .  A
C291        C296   1.411       .  A
C292        C293   1.404       .  A
C292       Br303   1.931       .  S
C293        C294   1.410       .  A
C293       Br299   1.928       .  S
C294        C295   1.407       .  A
C295        C296   1.409       .  A
C295       Br304   1.928       .  S
C296       Br300   1.928       .  S
C305        C306   1.412       .  A
C305        C310   1.414   1_556  A
C306        C307   1.410       .  A
C306       Br318   1.930       .  S
C307        C308   1.411   1_556  A
C307       Br666   1.931   1_455  S
C308        C655   1.493   1_545  S
C308        C309   1.410       .  A
C309        C310   1.412       .  A
C309       Br317   1.928   1_545  S
C310       Br321   1.932       .  S
C311        C652   1.493   1_565  S
C311        C312   1.411       .  A
C311        C660   1.411       .  A
C312        C313   1.410       .  A
C312       Br323   1.930   1_565  S
C313        C314   1.410       .  A
C313       Br319   1.929       .  S
C314        C315   1.411       .  A
C315        C660   1.410       .  A
C315       Br668   1.930   1_554  S
C316        C655   1.411       .  A
C316        C659   1.410   1_455  A
C316       Br320   1.927   1_554  S
Br322       C651   1.931       .  S
Br324       C659   1.930   1_556  S
C325        C326   1.409       .  A
C325        C330   1.408   1_554  A
C326        C327   1.409       .  A
C326       Br338   1.930       .  S
C327        C328   1.412   1_554  A
C327       Br342   1.929       .  S
C328        C331   1.494       .  S
C328        C329   1.412       .  A
C329        C330   1.410       .  A
C329       Br337   1.928       .  S
C330       Br341   1.929       .  S
C331        C332   1.406   1_556  A
C331        C336   1.407       .  A
C332        C333   1.412       .  A
C332       Br343   1.933       .  S
C333        C334   1.423   1_554  A
C333       Br339   1.925       .  S
C334        C335   1.422       .  A
C335        C336   1.412       .  A
C335       Br344   1.934       .  S
C336       Br340   1.932       .  S
O345       Ni351   1.946       .  S
O345        C366   1.275       .  A
O346       Ni369   1.903       .  S
O346        C355   1.264   1_556  A
O347       Ni351   1.930       .  S
O347       Ni369   1.915       .  S
O347       Ni363   1.919   1_556  S
O347        H370   0.970       .  S
C348        O365   1.271       .  A
C348        O357   1.273       .  A
C348        C598   1.485       .  S
O349       Ni368   1.936       .  S
O349        C355   1.271       .  A
O350       Ni368   1.901       .  S
O350        C352   1.268       .  A
Ni351       O354   1.943       .  S
Ni351       O356   1.904       .  S
C352        O362   1.274       .  A
C352        C638   1.471       .  S
O353       Ni369   1.900       .  S
O353        C359   1.266       .  A
O354        C359   1.275       .  A
C355        C669   1.477       .  S
O356        C358   1.270       .  A
O357       Ni368   1.929       .  S
C358        O364   1.275       .  A
C358        C578   1.471       .  S
C359        C609   1.483       .  S
H360        O361   0.965   1_556  S
O361       Ni369   1.908   1_554  S
O361       Ni363   1.911       .  S
O361       Ni368   1.925       .  S
O362       Ni363   1.939       .  S
Ni363       O367   1.899       .  S
Ni363       O365   1.911       .  S
O364       Ni369   1.939       .  S
C366        O367   1.265   1_556  A
C366        C649   1.487       .  S
O371       Ni377   1.951       .  S
O371        C392   1.276       .  A
O372       Ni395   1.909       .  S
O372        C381   1.268   1_556  A
O373       Ni377   1.906       .  S
O373       Ni395   1.907       .  S
O373       Ni389   1.904   1_556  S
O373        H396   0.966       .  S
C374        O391   1.273       .  A
C374        O383   1.273       .  A
C374        C558   1.476       .  S
O375       Ni394   1.936       .  S
O375        C381   1.271       .  A
O376       Ni394   1.911       .  S
O376        C378   1.270       .  A
Ni377       O380   1.945       .  S
Ni377       O382   1.896       .  S
C378        O388   1.270       .  A
C378        C518   1.478       .  S
O379       Ni395   1.903       .  S
O379        C385   1.270       .  A
O380        C385   1.280       .  A
C381        C658   1.482       .  S
O382        C384   1.267       .  A
O383       Ni394   1.921       .  S
C384        O390   1.278       .  A
C384        C538   1.480       .  S
C385        C489   1.494       .  S
H386        O387   0.966       .  S
O387       Ni395   1.911   1_554  S
O387       Ni389   1.917       .  S
O387       Ni394   1.924       .  S
O388       Ni389   1.925       .  S
Ni389       O393   1.912       .  S
Ni389       O391   1.912       .  S
O390       Ni395   1.957       .  S
C392        O393   1.268   1_556  A
C392        C678   1.505       .  S
O397       Ni403   1.926       .  S
O397        C418   1.269       .  A
O398       Ni421   1.897       .  S
O398        C407   1.263       .  A
O399       Ni403   1.932       .  S
O399       Ni421   1.911       .  S
O399       Ni415   1.918       .  S
O399        H422   0.966       .  S
C400        O417   1.271       .  A
C400        O409   1.274       .  A
C400        C629   1.484       .  S
O401       Ni420   1.939       .  S
O401        C407   1.272       .  A
O402       Ni420   1.904       .  S
O402        C404   1.269       .  A
Ni403       O406   1.926       .  S
Ni403       O408   1.900       .  S
C404        O414   1.276       .  A
C404        C589   1.476       .  S
O405       Ni421   1.889       .  S
O405        C411   1.263       .  A
O406        C411   1.271       .  A
C407        C449   1.477       .  S
O408        C410   1.269       .  A
O409       Ni420   1.930       .  S
C410        O416   1.277       .  A
C410        C618   1.479       .  S
C411        C569   1.469       .  S
H412        O413   0.965       .  S
O413       Ni421   1.902       .  S
O413       Ni415   1.908       .  S
O413       Ni420   1.920       .  S
O414       Ni415   1.946       .  S
Ni415       O419   1.900       .  S
Ni415       O417   1.909       .  S
O416       Ni421   1.944       .  S
C418        O419   1.266       .  A
C418        C469   1.473       .  S
O423       Ni429   1.918       .  S
O423        C444   1.269       .  A
O424       Ni447   1.908       .  S
O424        C433   1.270       .  A
O425       Ni429   1.921       .  S
O425       Ni447   1.909       .  S
O425       Ni441   1.921       .  S
O425        H448   0.965       .  S
C426        O443   1.264       .  A
C426        O435   1.274       .  A
C426        C509   1.507       .  S
O427       Ni446   1.928       .  S
O427        C433   1.272       .  A
O428       Ni446   1.900       .  S
O428        C430   1.268       .  A
Ni429       O432   1.929       .  S
Ni429       O434   1.897       .  S
C430        O440   1.281       .  A
C430        C549   1.495       .  S
O431       Ni447   1.918       .  S
O431        C437   1.269       .  A
O432        C437   1.269       .  A
C433        C478   1.488       .  S
O434        C436   1.270       .  A
O435       Ni446   1.951       .  S
C436        O442   1.281       .  A
C436        C498   1.481       .  S
C437        C529   1.491       .  S
H438        O439   0.966       .  S
O439       Ni447   1.919       .  S
O439       Ni441   1.902       .  S
O439       Ni446   1.915       .  S
O440       Ni441   1.967       .  S
Ni441       O445   1.903       .  S
Ni441       O443   1.905       .  S
O442       Ni447   1.957       .  S
C444        O445   1.266       .  A
C444        C458   1.486       .  S
C449        C450   1.413       .  A
C449        C454   1.410       .  A
C451       Br466   1.931       .  S
C452        C453   1.407       .  A
C453        C454   1.406       .  A
C453       Br461   1.930   1_545  S
C454       Br465   1.929       .  S
C455        C456   1.406       .  A
C455        C460   1.405       .  A
C456        C457   1.407       .  A
C456       Br467   1.931       .  S
C457        C458   1.417       .  A
C457       Br463   1.929       .  S
C458        C459   1.419       .  A
C459        C460   1.406       .  A
C459       Br468   1.935       .  S
C460       Br464   1.932       .  S
C469        C470   1.410       .  A
C469        C474   1.409       .  A
C470        C471   1.408       .  A
C470       Br482   1.930       .  S
C471        C472   1.411       .  A
C471       Br486   1.929       .  S
C472        C475   1.485       .  S
C472        C473   1.409       .  A
C473        C474   1.404       .  A
C473       Br481   1.930       .  S
C474       Br485   1.931       .  S
C475        C476   1.409       .  A
C475        C480   1.406       .  A
C476        C477   1.409       .  A
C476       Br487   1.930       .  S
C477        C478   1.414       .  A
C477       Br483   1.931       .  S
C478        C479   1.418       .  A
C479        C480   1.407       .  A
C479       Br488   1.933       .  S
C480       Br484   1.933       .  S
C489        C490   1.420       .  A
C489        C494   1.424       .  A
C490        C491   1.408       .  A
C490       Br502   1.933       .  S
C491        C492   1.404       .  A
C491       Br506   1.931       .  S
C492        C493   1.405       .  A
C493        C494   1.406       .  A
C494       Br505   1.935       .  S
C495        C496   1.407       .  A
C496        C497   1.408       .  A
C496       Br507   1.931       .  S
C497        C498   1.414       .  A
C497       Br503   1.928       .  S
C498        C499   1.413       .  A
C500       Br504   1.931   1_455  S
C509        C510   1.427       .  A
C509        C514   1.426       .  A
C510        C511   1.407       .  A
C510       Br522   1.932       .  S
C511        C512   1.403       .  A
C511       Br526   1.939       .  S
C513       Br521   1.931       .  S
C515        C516   1.409       .  A
C516        C517   1.409       .  A
C516       Br527   1.929       .  S
C517        C518   1.413       .  A
C517       Br523   1.930       .  S
C518        C519   1.410       .  A
C520       Br524   1.930       .  S
C529        C530   1.421       .  A
C529        C534   1.416       .  A
C530        C531   1.410       .  A
C530       Br542   1.932       .  S
C531        C532   1.405       .  A
C531       Br546   1.930       .  S
C532        C535   1.482       .  S
C532        C533   1.406       .  A
C533        C534   1.404       .  A
C533       Br541   1.935       .  S
C534       Br545   1.922       .  S
C535        C536   1.405       .  A
C535        C540   1.409       .  A
C536        C537   1.404       .  A
C536       Br547   1.935       .  S
C537        C538   1.414       .  A
C537       Br543   1.916       .  S
C538        C539   1.409       .  A
C539        C540   1.410       .  A
C539       Br548   1.927       .  S
C540       Br544   1.927       .  S
C549        C550   1.421       .  A
C549        C554   1.418       .  A
C550        C551   1.406       .  A
C550       Br562   1.937       .  S
C551        C552   1.406       .  A
C551       Br566   1.932       .  S
C552        C555   1.487       .  S
C552        C553   1.408       .  A
C553        C554   1.412       .  A
C553       Br561   1.931       .  S
C554       Br565   1.926       .  S
C555        C556   1.409       .  A
C555        C560   1.411       .  A
C556        C557   1.406       .  A
C556       Br567   1.932       .  S
C557        C558   1.413       .  A
C557       Br563   1.934       .  S
C558        C559   1.410       .  A
C559        C560   1.408       .  A
C559       Br568   1.931       .  S
C560       Br564   1.929       .  S
C569        C570   1.408   1_655  A
C569        C574   1.414       .  A
C570        C571   1.406       .  A
C570       Br582   1.928       .  S
C571        C572   1.408       .  A
C571       Br586   1.928       .  S
C572        C573   1.405   1_455  A
C573        C574   1.400       .  A
C574       Br585   1.933       .  S
C575        C576   1.405       .  A
C576        C577   1.403       .  A
C576       Br587   1.932       .  S
C577        C578   1.412       .  A
C577       Br583   1.928       .  S
C578        C579   1.408       .  A
C580       Br584   1.931   1_455  S
C589        C590   1.412       .  A
C589        C594   1.408       .  A
C590        C591   1.404       .  A
C590       Br602   1.923       .  S
C591        C592   1.405       .  A
C591       Br606   1.931       .  S
C592        C593   1.411       .  A
C593        C594   1.410       .  A
C593       Br601   1.928   1_655  S
C594       Br605   1.928       .  S
C595        C596   1.407       .  A
C596        C597   1.405       .  A
C596       Br607   1.934       .  S
C597        C598   1.416       .  A
C597       Br603   1.929       .  S
C599        C600   1.409   1_455  A
C599       Br608   1.931       .  S
C600       Br604   1.929       .  S
C609        C610   1.412       .  A
C609        C614   1.415       .  A
C610        C611   1.412       .  A
C610       Br622   1.928       .  S
C611        C612   1.409       .  A
C611       Br626   1.927       .  S
C612        C615   1.486       .  S
C612        C613   1.407       .  A
C613        C614   1.405       .  A
C613       Br621   1.933       .  S
C614       Br625   1.931       .  S
C615        C616   1.408       .  A
C615        C620   1.410       .  A
C616        C617   1.407       .  A
C616       Br627   1.930       .  S
C617        C618   1.414       .  A
C617       Br623   1.932       .  S
C618        C619   1.409       .  A
C619        C620   1.409       .  A
C619       Br628   1.927       .  S
C620       Br624   1.929       .  S
C629        C630   1.417       .  A
C629        C634   1.416       .  A
C630        C631   1.406       .  A
C630       Br642   1.933       .  S
C631        C632   1.408       .  A
C631       Br646   1.934       .  S
C632        C635   1.483       .  S
C632        C633   1.407       .  A
C633        C634   1.409       .  A
C633       Br641   1.929       .  S
C634       Br645   1.932       .  S
C635        C636   1.407       .  A
C635        C640   1.411       .  A
C636        C637   1.404       .  A
C636       Br647   1.931       .  S
C637        C638   1.410       .  A
C637       Br643   1.928       .  S
C638        C639   1.407       .  A
C639        C640   1.409       .  A
C639       Br648   1.928       .  S
C640       Br644   1.928       .  S
C649        C650   1.412       .  A
C649        C654   1.414   1_556  A
C650        C651   1.410       .  A
C650       Br662   1.930       .  S
C651        C652   1.411   1_556  A
C652        C653   1.410       .  A
C653        C654   1.412       .  A
C653       Br661   1.928   1_545  S
C654       Br665   1.932       .  S
C655        C656   1.411   1_455  A
C656        C657   1.410       .  A
C656       Br667   1.930   1_565  S
C657        C658   1.410       .  A
C657       Br663   1.929       .  S
C658        C659   1.411       .  A
C660       Br664   1.927   1_554  S
C669        C670   1.409       .  A
C669        C674   1.408   1_554  A
C670        C671   1.410       .  A
C670       Br682   1.930       .  S
C671        C672   1.412   1_554  A
C671       Br686   1.929       .  S
C672        C675   1.494       .  S
C672        C673   1.412       .  A
C673        C674   1.410       .  A
C673       Br681   1.928       .  S
C674       Br685   1.929       .  S
C675        C676   1.406   1_556  A
C675        C680   1.407       .  A
C676        C677   1.412       .  A
C676       Br687   1.933       .  S
C677        C678   1.423   1_554  A
C677       Br683   1.925       .  S
C678        C679   1.422       .  A
C679        C680   1.412       .  A
C679       Br688   1.934       .  S
C680       Br684   1.932       .  S
