geometry optimzed in LAMMPS
_audit_creation_date              2020-11-30 
_audit_creation_method            'lammps2cif' 
_symmetry_space_group_name_H-M    'P1' 
_symmetry_Int_Tables_number       1 
_symmetry_cell_setting            triclinic 
loop_ 
_symmetry_equiv_pos_as_xyz 
  x,y,z 
_cell_length_a                    33.92400774 
_cell_length_b                    34.2696996998154 
_cell_length_c                    24.85810601264716 
_cell_angle_alpha                 100.00734104756776 
_cell_angle_beta                  84.51467691439456 
_cell_angle_gamma                 90.27749682413285 
loop_ 
_atom_site_label 
_atom_site_type_symbol 
_atom_site_fract_x 
_atom_site_fract_y 
_atom_site_fract_z 
_atom_site_charge 
N1          N  0.85919165  0.25944767  0.99974537    -0.02700
C2          C  0.83473526  0.29136005  0.01763405    -0.00100
C3          C  0.83954775  0.30721234  0.07145363    -0.23000
C4          C  0.86764462  0.28446994  0.08773783    -0.23200
C5          C  0.87968036  0.25548519  0.04321700    -0.00200
H6          H  0.82270977  0.33143635  0.09705061     0.13600
H7          H  0.87613391  0.28707980  0.12903647     0.13600
N8          N  0.24088048  0.90914563  0.90099271    -0.02700
C9          C  0.27784011  0.89287911  0.89011652    -0.00100
C10         C  0.28891375  0.88627124  0.83433872    -0.23000
C11         C  0.25793821  0.89897481  0.80994695    -0.23200
C12         C  0.22879531  0.91283626  0.85153496    -0.00200
H13         H  0.31597287  0.87217002  0.81346909     0.13600
H14         H  0.25694151  0.89861895  0.76648004     0.13600
Zr15       Zr  0.55205529  0.54600360  0.10150285     2.17500
O16         O  0.60547650  0.52582846  0.15031002    -0.50600
O17         O  0.51463204  0.51071375  0.16889471    -0.73800
O18         O  0.57309172  0.59939193  0.17267687    -0.80600
O19         O  0.57515261  0.45840176  0.98035023    -0.82300
O20         O  0.53744716  0.65540266  0.17211763    -0.77900
O21         O  0.59765968  0.49083040  0.05869534    -0.89600
O22         O  0.44960318  0.51231925  0.15610787    -0.75500
O23         O  0.49217647  0.58421291  0.12510046    -0.85000
O24         O  0.50177449  0.50704261  0.05784485    -0.84700
O25         O  0.56349343  0.60739384  0.06657097    -0.71500
O26         O  0.57215611  0.53726988  0.00467716    -0.83600
Zr27       Zr  0.47283160  0.59632831  0.94958879     2.26400
Zr28       Zr  0.50252918  0.64481603  0.08955349     2.06300
Zr29       Zr  0.52129560  0.49855506  0.96150440     2.10000
Zr30       Zr  0.44232915  0.54577776  0.08011858     1.78800
O31         O  0.56188282  0.46777337  0.87912154    -0.92400
O32         O  0.40144865  0.58414163  0.15700122    -0.40200
O33         O  0.46054353  0.53545007  0.98321690    -0.76800
O34         O  0.45155497  0.60661450  0.04596848    -0.95500
O35         O  0.52248073  0.63573169  0.99317415    -0.88800
O36         O  0.53228247  0.55842858  0.92637826    -0.91700
C37         C  0.47809273  0.50207850  0.18098043     1.02100
C38         C  0.59997776  0.46253266  0.01664060     1.15000
C39         C  0.56277817  0.63561650  0.19227924     1.05800
O40         O  0.45126877  0.66987929  0.16259012    -0.93800
O41         O  0.46259453  0.69328501  0.05458627    -0.89600
O42         O  0.44786047  0.66365354  0.97000184    -0.82700
C43         C  0.44648830  0.69330020  0.00958932     1.12400
O44         O  0.64820979  0.60313945  0.99937406    -0.95800
Zr45       Zr  0.58180875  0.59776562  0.96932389     1.88900
O46         O  0.50723551  0.62381871  0.87393755    -0.72400
O47         O  0.54008135  0.70596373  0.09723926    -0.51700
O48         O  0.60723878  0.66493457  0.97791961    -0.96400
O49         O  0.62752635  0.55612860  0.90192171    -0.53600
O50         O  0.57315389  0.61819770  0.88171078    -0.73000
C51         C  0.54386098  0.62674157  0.85644041     0.99400
O52         O  0.40489165  0.60102738  0.92631071    -0.61800
O53         O  0.48656160  0.43732658  0.97061461    -0.56600
O54         O  0.46019766  0.54792706  0.86989797    -0.93300
O55         O  0.48563058  0.48872402  0.88013226    -0.91700
O56         O  0.40933258  0.48291135  0.05476995    -0.92100
O57         O  0.37338182  0.55196564  0.06283098    -0.90800
C58         C  0.46711734  0.51072204  0.85374996     1.18200
H59         H  0.49933292  0.48138407  0.06913139     0.34200
H60         H  0.42647682  0.62167375  0.05329939     0.45000
H61         H  0.53888368  0.55211154  0.88694177     0.38500
H62         H  0.58488726  0.62215247  0.08355440     0.35000
H63         H  0.38501782  0.56432253  0.17310665     0.26800
H64         H  0.54300056  0.71222635  0.05966685     0.32700
H65         H  0.58693557  0.68033761  0.96417525     0.38700
H66         H  0.42726013  0.46266273  0.06348539     0.33100
H67         H  0.45990668  0.44133509  0.95923230     0.32000
H68         H  0.54965750  0.44169644  0.86791318     0.33700
H69         H  0.63991939  0.53806115  0.92264829     0.32600
H70         H  0.37447721  0.56425002  0.02951196     0.36600
H71         H  0.39446282  0.57380259  0.92384202     0.29400
H72         H  0.59615904  0.53217609  0.18985549     0.33600
H73         H  0.64907119  0.58331361  0.02387543     0.36500
H74         H  0.49942894  0.41726270  0.94067746     0.29100
H75         H  0.39003587  0.61586715  0.95980310     0.41900
H76         H  0.45835319  0.69786144  0.17482304     0.32000
H77         H  0.42001788  0.59351433  0.18475014     0.39600
H78         H  0.64903608  0.57399247  0.89207096     0.31500
H79         H  0.52157967  0.72652591  0.11845984     0.31500
H80         H  0.62737120  0.54439122  0.14488936     0.31800
N81         N  0.39735597  0.33169454  0.46567697    -0.02700
C82         C  0.38628269  0.29294751  0.45812012    -0.00100
C83         C  0.39060936  0.27742892  0.50517754    -0.23000
C84         C  0.40336288  0.30737031  0.54314116    -0.23200
C85         C  0.40678599  0.34026795  0.51826460    -0.00200
H86         H  0.38132111  0.24853755  0.51315566     0.13600
H87         H  0.40699066  0.30611003  0.58559779     0.13600
N88         N  0.65895865  0.79007766  0.53740564    -0.02700
C89         C  0.67277001  0.82768930  0.55091881    -0.00100
C90         C  0.66694227  0.84011386  0.60716277    -0.23000
C91         C  0.64975214  0.80950765  0.62915272    -0.23200
C92         C  0.64557332  0.77909013  0.58596490    -0.00200
H93         H  0.67780837  0.86696290  0.63044882     0.13600
H94         H  0.64291415  0.80867814  0.67236979     0.13600
Zr95       Zr  0.06175637  0.09538530  0.36392142     2.17500
O96         O  0.06892683  0.15494930  0.32271599    -0.50600
O97         O  0.09872123  0.05145709  0.28870415    -0.73800
O98         O  0.12715485  0.12529370  0.37336592    -0.80600
O99         O  0.96035584  0.07312582  0.30894732    -0.82300
O100        O  0.14269168  0.12028831  0.45882258    -0.77900
O101        O  0.01994437  0.10099735  0.29075596    -0.89600
O102        O  0.10184260  0.98991025  0.31039891    -0.75500
O103        O  0.09689783  0.05480290  0.41239313    -0.85000
O104        O  0.02937445  0.03306874  0.35228479    -0.84700
O105        O  0.05646190  0.12907112  0.45794108    -0.71500
O106        O  0.99466903  0.10871500  0.40340148    -0.83600
Zr107      Zr  0.99208363  0.03648972  0.53461815     2.26400
Zr108      Zr  0.09013470  0.08692008  0.50655769     2.06300
Zr109      Zr  0.96294797  0.04584307  0.39278131     2.10000
Zr110      Zr  0.06485249  0.99259970  0.40005729     1.78800
O111        O  0.89797989  0.07707108  0.39881293    -0.92400
O112        O  0.13183805  0.97258229  0.41214874    -0.40200
O113        O  0.99763093  0.00365054  0.44021329    -0.76800
O114        O  0.05941328  0.02328595  0.49455874    -0.95500
O115        O  0.02371505  0.09928917  0.54727232    -0.88800
O116        O  0.95668372  0.07753649  0.48699452    -0.91700
C117        C  0.10949157  0.01481378  0.27780749     1.02100
C118        C  0.98451433  0.09150381  0.27932192     1.15000
C119        C  0.15024023  0.13144807  0.41210754     1.05800
O120        O  0.15590288  0.06669222  0.52328492    -0.93800
O121        O  0.09157992  0.05875284  0.59041859    -0.89600
O122        O  0.03302894  0.02893360  0.60799855    -0.82700
C123        C  0.06825468  0.03898518  0.61949112     1.12400
O124        O  0.98653801  0.20095091  0.46142650    -0.95800
Zr125      Zr  0.98926553  0.13967551  0.49804332     1.88900
O126        O  0.95448055  0.08040933  0.61018802    -0.72400
O127        O  0.09457484  0.14841825  0.57150112    -0.51700
O128        O  0.01940066  0.19595266  0.55247593    -0.96400
O129        O  0.92276136  0.16216627  0.48781302    -0.53600
O130        O  0.95445889  0.14211805  0.58877774    -0.73000
C131        C  0.94530761  0.11752272  0.62136565     0.99400
O132        O  0.98364375  0.97800838  0.57785690    -0.61800
O133        O  0.94666082  0.99164342  0.32128777    -0.56600
O134        O  0.92962255  0.00158678  0.51968916    -0.93300
O135        O  0.91728635  0.00126558  0.43143821    -0.91700
O136        O  0.03738374  0.93642529  0.34212915    -0.92100
O137        O  0.06513997  0.93191567  0.43850490    -0.90800
C138        C  0.90953945  0.99073409  0.47834829     1.18200
H139        H  0.02922438  0.02149585  0.31402783     0.34200
H140        H  0.07237767  0.00560184  0.51343458     0.45000
H141        H  0.92950695  0.08027268  0.50147453     0.38500
H142        H  0.06958478  0.15458576  0.46021650     0.35000
H143        H  0.13774154  0.94888951  0.38347755     0.26800
H144        H  0.08899615  0.14082124  0.60810379     0.32700
H145        H  0.01964735  0.18886587  0.58937860     0.38700
H146        H  0.01000084  0.94480448  0.33865170     0.33100
H147        H  0.92072565  0.99929851  0.31081481     0.32000
H148        H  0.88081783  0.05592575  0.38174727     0.33700
H149        H  0.90469155  0.14840316  0.51182464     0.32600
H150        H  0.04242737  0.93510728  0.46712525     0.36600
H151        H  0.95843363  0.98208632  0.60182336     0.29400
H152        H  0.09259401  0.15009102  0.29576839     0.33600
H153        H  0.99374204  0.19294262  0.42147627     0.36500
H154        H  0.96554236  0.99362718  0.28898368     0.29100
H155        H  0.97888079  0.95565983  0.54823199     0.41900
H156        H  0.16142815  0.04168541  0.49702470     0.32000
H157        H  0.14915483  0.99336494  0.39999299     0.39600
H158        H  0.91770263  0.14996217  0.45003588     0.31500
H159        H  0.12309963  0.15484923  0.56909893     0.31500
H160        H  0.07672607  0.17607778  0.35214723     0.31800
C161        C  0.81969486  0.93791418  0.53586625    -0.13600
C162        C  0.80960678  0.91246698  0.48860067     0.16800
C163        C  0.83309938  0.91228029  0.43868138     0.03100
C164        C  0.86576561  0.93740451  0.43675818    -0.12100
C165        C  0.87552857  0.96354054  0.48374393    -0.03200
C166        C  0.85208612  0.96347558  0.53386737     0.02300
C167        C  0.77282986  0.88878422  0.49220427     0.09200
N168        N  0.82275025  0.88878049  0.38884344     0.65500
H169        H  0.88320872  0.93691840  0.39776740     0.18400
N170        N  0.85884461  0.99113138  0.58207931     0.76000
H171        H  0.80147254  0.93880157  0.57434564     0.10000
C172        C  0.77359107  0.84707401  0.48674178     0.03600
C173        C  0.73856798  0.82671695  0.49826596    -0.05100
C174        C  0.70299702  0.84736605  0.51783904    -0.23500
C175        C  0.70188616  0.88892168  0.52018634     0.12900
C176        C  0.73650256  0.90899629  0.50663997    -0.12600
N177        N  0.81025304  0.82549759  0.47667532     0.64600
H178        H  0.74029420  0.79512716  0.49819001     0.12400
N179        N  0.66655251  0.91161887  0.54000832     0.61200
H180        H  0.73547671  0.94099270  0.51064480     0.08600
O181        O  0.87194099  0.97898653  0.62212488    -0.40300
O182        O  0.84490399  0.02588590  0.58848991    -0.39400
O183        O  0.80062072  0.90367309  0.35954141    -0.39400
O184        O  0.84325930  0.85837162  0.36780744    -0.37100
O185        O  0.64532664  0.92204825  0.50586341    -0.38000
O186        O  0.66292320  0.93009707  0.58879818    -0.34200
O187        O  0.83172605  0.82596680  0.51552981    -0.35600
O188        O  0.81620415  0.79907974  0.43448031    -0.39900
C189        C  0.28972184  0.26586080  0.40173355    -0.13600
C190        C  0.29349344  0.22446001  0.39310013     0.16800
C191        C  0.33138679  0.20734148  0.39068719     0.03100
C192        C  0.36400816  0.23165651  0.40208922    -0.12100
C193        C  0.35930106  0.27295320  0.41834176    -0.03200
C194        C  0.32220756  0.29021066  0.41424825     0.02300
C195        C  0.25720841  0.20016227  0.39655473     0.09200
N196        N  0.33625916  0.16535612  0.38432566     0.65500
H197        H  0.39209941  0.21777265  0.40549071     0.18400
N198        N  0.31541638  0.33182504  0.43050020     0.76000
H199        H  0.26066768  0.27931657  0.40354366     0.10000
C200        C  0.23692876  0.19814443  0.44807102     0.03600
C201        C  0.20270867  0.17545789  0.45167829    -0.05100
C202        C  0.18745991  0.15436297  0.40453908    -0.23500
C203        C  0.20774586  0.15668820  0.35257158     0.12900
C204        C  0.24242958  0.17935599  0.34911113    -0.12600
N205        N  0.25090153  0.21906233  0.49737321     0.64600
H206        H  0.18772386  0.17480440  0.49201283     0.12400
N207        N  0.19429873  0.13555059  0.30308079     0.61200
H208        H  0.25787475  0.18070569  0.30926913     0.08600
O209        O  0.29851661  0.34486121  0.47758413    -0.40300
O210        O  0.31693947  0.35348389  0.39419608    -0.39400
O211        O  0.35051203  0.14600429  0.33881754    -0.39400
O212        O  0.33348441  0.14901276  0.42625801    -0.37100
O213        O  0.17851527  0.15439243  0.27123593    -0.38000
O214        O  0.20585919  0.10026908  0.28578975    -0.34200
O215        O  0.23368728  0.25069468  0.52166711    -0.35600
O216        O  0.27567311  0.20264494  0.52127013    -0.39900
C217        C  0.45051463  0.36990046  0.34544212    -0.13600
C218        C  0.43586260  0.40890348  0.35351883     0.16800
C219        C  0.40638293  0.42126884  0.39714773     0.03100
C220        C  0.39309696  0.39523379  0.43264487    -0.12100
C221        C  0.40755938  0.35614316  0.42453242    -0.03200
C222        C  0.43634963  0.34346041  0.37999855     0.02300
C223        C  0.44745560  0.43429193  0.31173165     0.09200
N224        N  0.38956027  0.46023155  0.40580170     0.65500
H225        H  0.37120352  0.40551557  0.46674390     0.18400
N226        N  0.45207157  0.30400878  0.36991172     0.76000
H227        H  0.47236141  0.35960665  0.31123602     0.10000
C228        C  0.48597599  0.44938888  0.30374567     0.03600
C229        C  0.49563157  0.47119384  0.26117418    -0.05100
C230        C  0.46741095  0.47841740  0.22584063    -0.23500
C231        C  0.42882781  0.46260667  0.23420548     0.12900
C232        C  0.41948838  0.44116167  0.27665124    -0.12600
N233        N  0.51528092  0.44370950  0.33936400     0.64600
H234        H  0.52526009  0.48281255  0.25620792     0.12400
N235        N  0.39872425  0.46666695  0.19902281     0.61200
H236        H  0.39008219  0.42893489  0.28151596     0.08600
O237        O  0.48552300  0.29759116  0.38509191    -0.40300
O238        O  0.43704149  0.27787766  0.33588458    -0.39400
O239        O  0.35571252  0.46519607  0.39080524    -0.39400
O240        O  0.40471564  0.48784528  0.43741572    -0.37100
O241        O  0.39331809  0.43871509  0.16022996    -0.38000
O242        O  0.37216326  0.49295784  0.21439932    -0.34200
O243        O  0.54421317  0.42054173  0.32155867    -0.35600
O244        O  0.51637052  0.46727250  0.38423742    -0.39900
C245        C  0.43926341  0.43530552  0.73268924    -0.13600
C246        C  0.43777969  0.45915741  0.69252145     0.16800
C247        C  0.44401055  0.50007791  0.70606511     0.03100
C248        C  0.45212472  0.51647790  0.75941611    -0.12100
C249        C  0.45455901  0.49252880  0.79966941    -0.03200
C250        C  0.44762176  0.45144944  0.78586799     0.02300
C251        C  0.42897344  0.43973724  0.63737632     0.09200
N252        N  0.44279307  0.52520772  0.66606230     0.65500
H253        H  0.45772670  0.54797492  0.76881718     0.18400
N254        N  0.44840766  0.42572179  0.82529128     0.76000
H255        H  0.43400422  0.40376349  0.72249689     0.10000
C256        C  0.45972136  0.42366284  0.59768986     0.03600
C257        C  0.45132321  0.39411020  0.55386777    -0.05100
C258        C  0.41271588  0.37996930  0.55004355    -0.23500
C259        C  0.38155522  0.39849580  0.58725590     0.12900
C260        C  0.38986687  0.42861874  0.63007276    -0.12600
N261        N  0.50002977  0.43324251  0.60547387     0.64600
H262        H  0.47549097  0.37944668  0.52616237     0.12400
N263        N  0.34213866  0.38363967  0.58634277     0.61200
H264        H  0.36621214  0.44036354  0.66102779     0.08600
O265        O  0.47729546  0.40212003  0.82224532    -0.40300
O266        O  0.41709418  0.42060384  0.85483096    -0.39400
O267        O  0.41164871  0.54485912  0.66477284    -0.39400
O268        O  0.47479503  0.53470915  0.64166326    -0.37100
O269        O  0.33162003  0.35740052  0.61448752    -0.38000
O270        O  0.31598982  0.40311517  0.56919755    -0.34200
O271        O  0.51954271  0.41308905  0.63190638    -0.35600
O272        O  0.51765570  0.45764882  0.57927827    -0.39900
C273        C  0.62341986  0.76267689  0.39681088    -0.13600
C274        C  0.62995031  0.72152642  0.38559559     0.16800
C275        C  0.65153455  0.70431859  0.42158346     0.03100
C276        C  0.66298894  0.72768117  0.46979006    -0.12100
C277        C  0.65356766  0.76831933  0.48315416    -0.03200
C278        C  0.63470754  0.78598650  0.44492534     0.02300
C279        C  0.61260636  0.69743618  0.33743356     0.09200
N280        N  0.66031693  0.66284218  0.41134606     0.65500
H281        H  0.67827812  0.71371650  0.49782858     0.18400
N282        N  0.62442351  0.82712048  0.45567835     0.76000
H283        H  0.60815253  0.77674185  0.36878568     0.10000
C284        C  0.57180101  0.70021662  0.33093380     0.03600
C285        C  0.55647629  0.68002187  0.28351821    -0.05100
C286        C  0.58080551  0.65624640  0.24180997    -0.23500
C287        C  0.62162154  0.65324352  0.24818649     0.12900
C288        C  0.63705975  0.67362864  0.29573509    -0.12600
N289        N  0.54527381  0.72295567  0.37273713     0.64600
H290        H  0.52507268  0.68254756  0.27965074     0.12400
N291        N  0.64831435  0.63232523  0.20493412     0.61200
H292        H  0.66861132  0.67216889  0.29895424     0.08600
O293        O  0.59119579  0.83806838  0.48092280    -0.40300
O294        O  0.64304695  0.85001655  0.42789400    -0.39400
O295        O  0.69455577  0.65083536  0.39111818    -0.39400
O296        O  0.63742045  0.63977044  0.43336934    -0.37100
O297        O  0.65936570  0.64840185  0.16412106    -0.38000
O298        O  0.66669191  0.60213064  0.21253047    -0.34200
O299        O  0.53011199  0.75460620  0.36419057    -0.35600
O300        O  0.53172615  0.70800535  0.41354459    -0.39900
C301        C  0.55109896  0.68797558  0.74190139    -0.13600
C302        C  0.57705126  0.66472112  0.70145200     0.16800
C303        C  0.58977853  0.62760265  0.71137812     0.03100
C304        C  0.57824227  0.61566595  0.76183066    -0.12100
C305        C  0.55338682  0.63963546  0.80273267    -0.03200
C306        C  0.53897723  0.67566639  0.79183125     0.02300
C307        C  0.59558342  0.68327981  0.65505394     0.09200
N308        N  0.61421117  0.60156267  0.67062445     0.65500
H309        H  0.58884637  0.58744413  0.76915690     0.18400
N310        N  0.51455145  0.70161788  0.83263167     0.76000
H311        H  0.54205488  0.71714783  0.73628475     0.10000
C312        C  0.57270161  0.70357870  0.62367748     0.03600
C313        C  0.59041100  0.73202775  0.59488944    -0.05100
C314        C  0.63092792  0.73984214  0.59557534    -0.23500
C315        C  0.65460480  0.71575735  0.62051149     0.12900
C316        C  0.63684588  0.68807192  0.65028528    -0.12600
N317        N  0.53115729  0.69691680  0.62272762     0.64600
H318        H  0.57195836  0.75006772  0.57539891     0.12400
N319        N  0.69637906  0.72161590  0.62017235     0.61200
H320        H  0.65513086  0.67313815  0.67399384     0.08600
O321        O  0.47878866  0.70683033  0.82540615    -0.40300
O322        O  0.53054625  0.72562168  0.86832678    -0.39400
O323        O  0.65011939  0.59667465  0.67746203    -0.39400
O324        O  0.59800300  0.57667926  0.63623647    -0.37100
O325        O  0.71967729  0.69704334  0.58916556    -0.38000
O326        O  0.70977702  0.74570008  0.65827736    -0.34200
O327        O  0.50691010  0.72349515  0.64702343    -0.35600
O328        O  0.51931899  0.66918933  0.58786210    -0.39900
C329        C  0.17900362  0.95838374  0.16034189    -0.13600
C330        C  0.16629875  0.97282155  0.11536453     0.16800
C331        C  0.13522751  0.00089498  0.12406396     0.03100
C332        C  0.11786788  0.01471276  0.17736087    -0.12100
C333        C  0.13027210  0.00025280  0.22266579    -0.03200
C334        C  0.16104339  0.97150587  0.21368630     0.02300
C335        C  0.18507433  0.95745149  0.05945506     0.09200
N336        N  0.12058974  0.01515580  0.07899223     0.65500
H337        H  0.09383034  0.03622028  0.18316125     0.18400
N338        N  0.17502656  0.95603506  0.25826448     0.76000
H339        H  0.20279919  0.93658830  0.15389705     0.10000
C340        C  0.22122455  0.97257698  0.03968612     0.03600
C341        C  0.23927402  0.95608599  0.98767720    -0.05100
C342        C  0.22164509  0.92478754  0.95454675    -0.23500
C343        C  0.18523833  0.90992301  0.97409285     0.12900
C344        C  0.16722566  0.92637442  0.02626121    -0.12600
N345        N  0.23954412  0.00507396  0.07170801     0.64600
H346        H  0.26693148  0.96806245  0.97258191     0.12400
N347        N  0.16689435  0.87733255  0.94235681     0.61200
H348        H  0.13954171  0.91438450  0.04138340     0.08600
O349        O  0.16448958  0.92199751  0.26633966    -0.40300
O350        O  0.20370307  0.97243128  0.28174105    -0.39400
O351        O  0.08962970  0.00044454  0.05979156    -0.39400
O352        O  0.13408785  0.04675838  0.06532574    -0.37100
O353        O  0.17859852  0.84253815  0.94295211    -0.38000
O354        O  0.13363100  0.88249352  0.92576257    -0.34200
O355        O  0.26796542  0.99869962  0.09837916    -0.35600
O356        O  0.23177225  0.04003867  0.06613687    -0.39900
C357        C  0.08162442  0.98586882  0.74080626    -0.13600
C358        C  0.11997550  0.99720301  0.75295077     0.16800
C359        C  0.14009960  0.02410462  0.72324825     0.03100
C360        C  0.12157861  0.03911117  0.68284390    -0.12100
C361        C  0.08395979  0.02609510  0.66823074    -0.03200
C362        C  0.06395929  0.99902291  0.69828222     0.02300
C363        C  0.14072682  0.97543108  0.78925632     0.09200
N364        N  0.18092682  0.03289251  0.72875681     0.65500
H365        H  0.13814972  0.05916001  0.66024913     0.18400
N366        N  0.02766936  0.98115723  0.68297595     0.76000
H367        H  0.06622967  0.96436350  0.76211055     0.10000
C368        C  0.16036524  0.99473793  0.83402604     0.03600
C369        C  0.18663333  0.97314858  0.85856899    -0.05100
C370        C  0.19226009  0.93228045  0.84061269    -0.23500
C371        C  0.16868912  0.91240706  0.80094564     0.12900
C372        C  0.14375844  0.93403515  0.77512079    -0.12600
N373        N  0.15349104  0.03587675  0.85540407     0.64600
H374        H  0.20408143  0.98865066  0.88972657     0.12400
N375        N  0.17125263  0.87030171  0.78460315     0.61200
H376        H  0.12811428  0.91848619  0.74192009     0.08600
O377        O  0.02905930  0.94834573  0.65061381    -0.40300
O378        O  0.99600722  0.99151890  0.71283331    -0.39400
O379        O  0.20690535  0.00693406  0.70816023    -0.39400
O380        O  0.19124034  0.06845346  0.74171761    -0.37100
O381        O  0.18820357  0.85559893  0.73815135    -0.38000
O382        O  0.14957761  0.84862471  0.81090717    -0.34200
O383        O  0.12084357  0.04664484  0.88254819    -0.35600
O384        O  0.18230610  0.05932389  0.85845121    -0.39900
C385        C  0.36486027  0.85671046  0.95141074    -0.13600
C386        C  0.34936623  0.82170837  0.96659060     0.16800
C387        C  0.30847344  0.81458515  0.96545094     0.03100
C388        C  0.28419187  0.84120659  0.94658017    -0.12100
C389        C  0.30002387  0.87485128  0.92814790    -0.03200
C390        C  0.34039381  0.88342387  0.93264363     0.02300
C391        C  0.37651749  0.79100829  0.97814106     0.09200
N392        N  0.29177236  0.77879654  0.97899831     0.65500
H393        H  0.25362316  0.83360098  0.94165321     0.18400
N394        N  0.35700517  0.91845463  0.91621692     0.76000
H395        H  0.39621919  0.86259380  0.95238958     0.10000
C396        C  0.39316916  0.76187160  0.93524177     0.03600
C397        C  0.41648972  0.73143711  0.94676476    -0.05100
C398        C  0.42430407  0.72903725  0.00080592    -0.23500
C399        C  0.40848429  0.75916984  0.04379296     0.12900
C400        C  0.38459378  0.78963054  0.03212160    -0.12600
N401        N  0.38590299  0.76226387  0.87962664     0.64600
H402        H  0.42806497  0.70907721  0.91274240     0.12400
N403        N  0.41491272  0.75856770  0.09957116     0.61200
H404        H  0.37181130  0.81197334  0.06543283     0.08600
O405        O  0.38074653  0.91598001  0.87344537    -0.40300
O406        O  0.34672116  0.95207120  0.94334485    -0.39400
O407        O  0.27261231  0.77951346  0.02522326    -0.39400
O408        O  0.28843152  0.74947342  0.94131408    -0.37100
O409        O  0.44364207  0.77731157  0.11985328    -0.38000
O410        O  0.38777645  0.74672564  0.13101188    -0.34200
O411        O  0.40983577  0.77959755  0.84988501    -0.35600
O412        O  0.36114852  0.73862691  0.85744527    -0.39900
C413        C  0.91952617  0.12478828  0.17736823    -0.13600
C414        C  0.94811097  0.13467241  0.13730776     0.16800
C415        C  0.98830692  0.12602385  0.14154407     0.03100
C416        C  0.99924266  0.11108532  0.18715819    -0.12100
C417        C  0.97084726  0.10324021  0.22884292    -0.03200
C418        C  0.93032355  0.10855676  0.22209812     0.02300
C419        C  0.93627245  0.16078243  0.09888452     0.09200
N420        N  0.01855174  0.13242334  0.09996917     0.65500
H421        H  0.03040098  0.10592078  0.19007272     0.18400
N422        N  0.89969139  0.09981171  0.26169145     0.76000
H423        H  0.88863073  0.13188394  0.17596591     0.10000
C424        C  0.90319529  0.15309315  0.06801305     0.03600
C425        C  0.88763980  0.18317134  0.04370481    -0.05100
C426        C  0.90430488  0.22109906  0.04984440    -0.23500
C427        C  0.93933672  0.22751101  0.07653740     0.12900
C428        C  0.95470346  0.19766352  0.10067864    -0.12600
N429        N  0.88399184  0.11559435  0.06298373     0.64600
H430        H  0.86056706  0.17778669  0.02385209     0.12400
N431        N  0.95816228  0.26526569  0.08323610     0.61200
H432        H  0.97944398  0.20477831  0.12495495     0.08600
O433        O  0.88526199  0.12719888  0.29889377    -0.40300
O434        O  0.88194945  0.06719788  0.25297685    -0.39400
O435        O  0.04273602  0.16019611  0.11029435    -0.39400
O436        O  0.02722691  0.10488558  0.05983506    -0.37100
O437        O  0.95178273  0.28877201  0.12829542    -0.38000
O438        O  0.98867564  0.26994286  0.05191570    -0.34200
O439        O  0.85054244  0.11284350  0.08893710    -0.35600
O440        O  0.89561111  0.08843535  0.02363976    -0.39900
C441        C  0.90909319  0.21670654  0.86049439    -0.13600
C442        C  0.87830359  0.19571966  0.83530112     0.16800
C443        C  0.84058321  0.19623573  0.86478301     0.03100
C444        C  0.83452388  0.21734678  0.91888867    -0.12100
C445        C  0.86565015  0.23792364  0.94422733    -0.03200
C446        C  0.90304848  0.23786460  0.91414815     0.02300
C447        C  0.88783077  0.17199445  0.77955440     0.09200
N448        N  0.80853776  0.17474023  0.84097027     0.65500
H449        H  0.80565355  0.21716141  0.94153546     0.18400
N450        N  0.93496837  0.26017097  0.93696122     0.76000
H451        H  0.93813607  0.21674683  0.83812249     0.10000
C452        C  0.88210808  0.18731703  0.73178787     0.03600
C453        C  0.89988555  0.16838485  0.68059886    -0.05100
C454        C  0.92326277  0.13383029  0.67558351    -0.23500
C455        C  0.92693351  0.11735713  0.72330433     0.12900
C456        C  0.90949675  0.13659569  0.77448816    -0.12600
N457        N  0.85978375  0.22300127  0.73479944     0.64600
H458        H  0.89601864  0.18137592  0.64466714     0.12400
N459        N  0.95040371  0.08260046  0.72137136     0.61200
H460        H  0.91453536  0.12480501  0.81102478     0.08600
O461        O  0.93616189  0.29699170  0.93705734    -0.40300
O462        O  0.96580241  0.24222326  0.94449752    -0.39400
O463        O  0.80104253  0.14052654  0.85116082    -0.39400
O464        O  0.78295836  0.19289446  0.82070829    -0.37100
O465        O  0.93346876  0.04987906  0.72266025    -0.38000
O466        O  0.98644152  0.08595681  0.72991206    -0.34200
O467        O  0.87775853  0.25501483  0.73205408    -0.35600
O468        O  0.82359471  0.22082168  0.72688150    -0.39900
C469        C  0.77327310  0.36558541  0.96952571    -0.13600
C470        C  0.73530489  0.35359604  0.98731394     0.16800
C471        C  0.73068496  0.31534283  0.00061396     0.03100
C472        C  0.76418331  0.29188109  0.00226307    -0.12100
C473        C  0.80242637  0.30560110  0.98980957    -0.03200
C474        C  0.80666056  0.34161833  0.97002400     0.02300
C475        C  0.70112664  0.38174618  0.99419811     0.09200
N476        N  0.69248108  0.30139835  0.01732730     0.65500
H477        H  0.76047653  0.26456287  0.01847979     0.18400
N478        N  0.84502543  0.35512818  0.95328189     0.76000
H479        H  0.77713371  0.39424188  0.95707385     0.10000
C480        C  0.69922337  0.41663983  0.03394860     0.03600
C481        C  0.66595883  0.44189140  0.04116308    -0.05100
C482        C  0.63420258  0.43375155  0.00850188    -0.24300
C483        C  0.63692203  0.39904161  0.96741969     0.12900
C484        C  0.66984784  0.37341145  0.96133011    -0.12600
N485        N  0.73073641  0.42664003  0.06788776     0.64600
H486        H  0.66537600  0.46834582  0.07226333     0.12400
N487        N  0.60710474  0.38943351  0.93055831     0.61200
H488        H  0.67120800  0.34695406  0.93013025     0.08600
O489        O  0.85917091  0.34556150  0.90392355    -0.40300
O490        O  0.86210796  0.38093351  0.98533944    -0.39400
O491        O  0.67617102  0.27484779  0.98539971    -0.39400
O492        O  0.67810966  0.31080265  0.06660008    -0.37100
O493        O  0.58035138  0.36540274  0.94103169    -0.38000
O494        O  0.61315612  0.39682207  0.88248017    -0.34200
O495        O  0.75576821  0.45202911  0.05641412    -0.35600
O496        O  0.72915488  0.41608204  0.11419292    -0.39900
loop_ 
_geom_bond_atom_site_label_1 
_geom_bond_atom_site_label_2 
_geom_bond_distance 
_geom_bond_site_symmetry_2 
_ccdc_geom_bond_type 
N1            C5   1.366   1_556  A
N1            C2   1.361   1_556  A
N1          C445   1.445       .  S
C2            C3   1.378       .  A
C2          C473   1.478   1_554  S
C3            C4   1.368       .  A
C3            H6   1.083       .  S
C4            C5   1.383       .  A
C4            H7   1.081       .  S
C5          C426   1.489       .  S
N8           C12   1.359       .  A
N8            C9   1.358       .  A
N8          C342   1.440       .  S
C9           C10   1.381       .  A
C9          C389   1.478       .  S
C10          C11   1.371       .  A
C10          H13   1.082       .  S
C11          C12   1.382       .  A
C11          H14   1.082       .  S
C12         C370   1.480       .  S
Zr15         O16   2.441       .  S
Zr15         O17   2.483       .  S
Zr15         O18   2.468       .  S
Zr15         O21   2.473       .  S
Zr15         O23   2.391       .  S
Zr15         O24   2.387       .  S
Zr15         O25   2.428       .  S
Zr15         O26   2.405       .  S
O16          H72   0.990       .  S
O16          H80   0.990       .  S
O17          C37   1.292       .  A
O18          C39   1.289       .  A
O19         Zr29   2.421       .  S
O19          C38   1.282   1_556  A
O20         Zr28   2.439       .  S
O20          C39   1.287       .  A
O21          C38   1.293       .  A
O22         Zr30   2.406       .  S
O22          C37   1.278       .  A
O23         Zr28   2.406       .  S
O23         Zr30   2.382       .  S
O24         Zr29   2.391   1_554  S
O24         Zr30   2.386       .  S
O24          H59   0.969       .  S
O25         Zr28   2.407       .  S
O25         Zr45   2.403   1_554  S
O25          H62   0.970       .  S
O26         Zr29   2.393   1_554  S
O26         Zr45   2.398   1_554  S
Zr27         O52   2.442       .  S
Zr27         O46   2.444       .  S
Zr27         O54   2.423       .  S
Zr27         O42   2.414       .  S
Zr27         O33   2.399       .  S
Zr27         O34   2.401   1_556  S
Zr27         O35   2.378       .  S
Zr27         O36   2.373       .  S
Zr28         O47   2.436       .  S
Zr28         O40   2.435       .  S
Zr28         O41   2.470       .  S
Zr28         O34   2.392       .  S
Zr28         O35   2.393   1_554  S
Zr29         O31   2.434       .  S
Zr29         O53   2.436       .  S
Zr29         O55   2.428       .  S
Zr29         O33   2.390       .  S
Zr29         O36   2.380       .  S
Zr30         O56   2.435       .  S
Zr30         O57   2.435       .  S
Zr30         O32   2.438       .  S
Zr30         O33   2.394   1_554  S
Zr30         O34   2.392       .  S
O31          H68   0.990       .  S
O32          H63   0.990       .  S
O32          H77   0.990       .  S
O34          H60   0.982       .  S
O35         Zr45   2.372       .  S
O36         Zr45   2.367       .  S
O36          H61   0.971       .  S
C37         C230   1.505       .  S
C38         C482   1.503       .  S
C39         C286   1.492       .  S
O40          H76   0.990       .  S
O41          C43   1.291       .  A
O42          C43   1.283   1_556  A
C43         C398   1.499       .  S
O44         Zr45   2.436       .  S
O44          H73   0.990   1_556  S
Zr45         O48   2.436       .  S
Zr45         O49   2.438       .  S
Zr45         O50   2.444       .  S
O46          C51   1.286       .  A
O47          H64   0.990       .  S
O47          H79   0.990       .  S
O48          H65   0.990       .  S
O49          H69   0.990       .  S
O49          H78   0.990       .  S
O50          C51   1.286       .  A
C51         C305   1.484       .  S
O52          H71   0.990       .  S
O52          H75   0.990       .  S
O53          H67   0.990       .  S
O53          H74   0.990       .  S
O54          C58   1.284       .  A
O55          C58   1.284       .  A
O56          H66   0.990       .  S
O57          H70   0.990       .  S
C58         C249   1.481       .  S
N81          C85   1.358       .  A
N81          C82   1.364       .  A
N81         C221   1.447       .  S
C82          C83   1.387       .  A
C82         C193   1.489       .  S
C83          C84   1.367       .  A
C83          H86   1.083       .  S
C84          C85   1.376       .  A
C84          H87   1.082       .  S
C85         C258   1.473       .  S
N88          C92   1.363       .  A
N88          C89   1.367       .  A
N88         C277   1.451       .  S
C89          C90   1.384       .  A
C89         C174   1.486       .  S
C90          C91   1.368       .  A
C90          H93   1.082       .  S
C91          C92   1.378       .  A
C91          H94   1.082       .  S
C92         C314   1.482       .  S
Zr95         O96   2.439       .  S
Zr95         O97   2.434       .  S
Zr95         O98   2.454       .  S
Zr95        O101   2.444       .  S
Zr95        O103   2.383       .  S
Zr95        O104   2.382       .  S
Zr95        O105   2.411       .  S
Zr95        O106   2.404   1_455  S
O96         H152   0.990       .  S
O96         H160   0.990       .  S
O97         C117   1.285       .  A
O98         C119   1.287       .  A
O99        Zr109   2.437       .  S
O99         C118   1.285       .  A
O100       Zr108   2.438       .  S
O100        C119   1.287       .  A
O101        C118   1.289   1_455  A
O102       Zr110   2.438       .  S
O102        C117   1.285   1_565  A
O103       Zr108   2.397       .  S
O103       Zr110   2.374   1_545  S
O104       Zr109   2.389   1_455  S
O104       Zr110   2.376   1_545  S
O104        H139   0.965       .  S
O105       Zr108   2.396       .  S
O105       Zr125   2.402   1_455  S
O105        H142   0.975       .  S
O106       Zr109   2.388       .  S
O106       Zr125   2.397       .  S
Zr107       O132   2.437   1_545  S
Zr107       O126   2.449       .  S
Zr107       O134   2.456       .  S
Zr107       O122   2.445   1_655  S
Zr107       O113   2.410       .  S
Zr107       O114   2.415   1_655  S
Zr107       O115   2.385   1_655  S
Zr107       O116   2.385       .  S
Zr108       O127   2.435       .  S
Zr108       O120   2.434       .  S
Zr108       O121   2.449       .  S
Zr108       O114   2.396       .  S
Zr108       O115   2.389       .  S
Zr109       O111   2.435       .  S
Zr109       O133   2.438   1_545  S
Zr109       O135   2.421       .  S
Zr109       O113   2.396       .  S
Zr109       O116   2.394       .  S
Zr110       O136   2.434       .  S
Zr110       O137   2.435       .  S
Zr110       O112   2.438       .  S
Zr110       O113   2.405   1_465  S
Zr110       O114   2.391   1_565  S
O111        H148   0.990       .  S
O112        H143   0.990       .  S
O112        H157   0.990       .  S
O114        H140   0.960       .  S
O115       Zr125   2.378   1_455  S
O116       Zr125   2.380       .  S
O116        H141   0.956       .  S
C117        C333   1.485       .  S
C118        C417   1.497       .  S
C119        C202   1.498       .  S
O120        H156   0.990       .  S
O121        C123   1.290       .  A
O122        C123   1.287       .  A
C123        C361   1.503       .  S
O124       Zr125   2.435       .  S
O124        H153   0.990       .  S
Zr125       O128   2.436   1_655  S
Zr125       O129   2.438       .  S
Zr125       O130   2.432       .  S
O126        C131   1.287       .  A
O127        H144   0.990       .  S
O127        H159   0.990       .  S
O128        H145   0.990       .  S
O129        H149   0.990       .  S
O129        H158   0.990       .  S
O130        C131   1.284       .  A
C131        C454   1.496       .  S
O132        H151   0.990       .  S
O132        H155   0.990       .  S
O133        H147   0.990       .  S
O133        H154   0.990       .  S
O134        C138   1.287   1_545  A
O135        C138   1.283   1_545  A
O136        H146   0.990       .  S
O137        H150   0.990       .  S
C138        C165   1.490       .  S
C161        C162   1.406       .  A
C161        C166   1.405       .  A
C161        H171   1.084       .  S
C162        C163   1.408       .  A
C162        C167   1.489       .  S
C163        N168   1.428       .  S
C163        C164   1.402       .  A
C164        C165   1.408       .  A
C164        H169   1.084       .  S
C165        C166   1.413       .  A
C166        N170   1.429       .  S
C167        C172   1.412       .  A
C167        C176   1.402       .  A
N168        O183   1.262       .  A
N168        O184   1.262       .  A
N170        O181   1.262       .  A
N170        O182   1.262   1_565  A
C172        N177   1.429       .  S
C172        C173   1.406       .  A
C173        C174   1.404       .  A
C173        H178   1.084       .  S
C174        C175   1.416       .  A
C175        N179   1.431       .  S
C175        C176   1.401       .  A
C176        H180   1.084       .  S
N177        O187   1.262       .  A
N177        O188   1.262       .  A
N179        O185   1.262       .  A
N179        O186   1.262       .  A
C189        C190   1.402       .  A
C189        C194   1.405       .  A
C189        H199   1.084       .  S
C190        C191   1.407       .  A
C190        C195   1.487       .  S
C191        N196   1.429       .  S
C191        C192   1.403       .  A
C192        C193   1.408       .  A
C192        H197   1.084       .  S
C193        C194   1.413       .  A
C194        N198   1.427       .  S
C195        C200   1.407       .  A
C195        C204   1.403       .  A
N196        O211   1.261       .  A
N196        O212   1.262       .  A
N198        O209   1.261       .  A
N198        O210   1.262       .  A
C200        N205   1.429       .  S
C200        C201   1.398       .  A
C201        C202   1.408       .  A
C201        H206   1.084       .  S
C202        C203   1.419       .  A
C203        N207   1.429       .  S
C203        C204   1.411       .  A
C204        H208   1.084       .  S
N205        O215   1.262       .  A
N205        O216   1.262       .  A
N207        O213   1.262       .  A
N207        O214   1.262       .  A
C217        C218   1.403       .  A
C217        C222   1.406       .  A
C217        H227   1.084       .  S
C218        C219   1.412       .  A
C218        C223   1.491       .  S
C219        N224   1.428       .  S
C219        C220   1.404       .  A
C220        C221   1.403       .  A
C220        H225   1.083       .  S
C221        C222   1.414       .  A
C222        N226   1.428       .  S
C223        C228   1.412       .  A
C223        C232   1.396       .  A
N224        O239   1.262       .  A
N224        O240   1.262       .  A
N226        O237   1.262       .  A
N226        O238   1.262       .  A
C228        N233   1.428       .  S
C228        C229   1.411       .  A
C229        C230   1.410       .  A
C229        H234   1.083       .  S
C230        C231   1.425       .  A
C231        N235   1.429       .  S
C231        C232   1.399       .  A
C232        H236   1.084       .  S
N233        O243   1.262       .  A
N233        O244   1.262       .  A
N235        O241   1.262       .  A
N235        O242   1.262       .  A
C245        C246   1.400       .  A
C245        C250   1.396       .  A
C245        H255   1.084       .  S
C246        C247   1.404       .  A
C246        C251   1.473       .  S
C247        N252   1.428       .  S
C247        C248   1.400       .  A
C248        C249   1.408       .  A
C248        H253   1.084       .  S
C249        C250   1.414       .  A
C250        N254   1.430       .  S
C251        C256   1.409       .  A
C251        C260   1.398       .  A
N252        O267   1.262       .  A
N252        O268   1.262       .  A
N254        O265   1.262       .  A
N254        O266   1.262       .  A
C256        N261   1.428       .  S
C256        C257   1.402       .  A
C257        C258   1.400       .  A
C257        H262   1.084       .  S
C258        C259   1.411       .  A
C259        N263   1.429       .  S
C259        C260   1.397       .  A
C260        H264   1.084       .  S
N261        O271   1.262       .  A
N261        O272   1.261       .  A
N263        O269   1.262       .  A
N263        O270   1.261       .  A
C273        C274   1.404       .  A
C273        C278   1.403       .  A
C273        H283   1.084       .  S
C274        C275   1.413       .  A
C274        C279   1.499       .  S
C275        N280   1.427       .  S
C275        C276   1.407       .  A
C276        C277   1.405       .  A
C276        H281   1.082       .  S
C277        C278   1.414       .  A
C278        N282   1.427       .  S
C279        C284   1.414       .  A
C279        C288   1.406       .  A
N280        O295   1.262       .  A
N280        O296   1.261       .  A
N282        O293   1.262       .  A
N282        O294   1.262       .  A
C284        N289   1.430       .  S
C284        C285   1.403       .  A
C285        C286   1.403       .  A
C285        H290   1.084       .  S
C286        C287   1.415       .  A
C287        N291   1.429       .  S
C287        C288   1.410       .  A
C288        H292   1.083       .  S
N289        O299   1.262       .  A
N289        O300   1.262       .  A
N291        O297   1.262       .  A
N291        O298   1.262       .  A
C301        C302   1.407       .  A
C301        C306   1.404       .  A
C301        H311   1.083       .  S
C302        C303   1.414       .  A
C302        C307   1.497       .  S
C303        N308   1.429       .  S
C303        C304   1.406       .  A
C304        C305   1.404       .  A
C304        H309   1.084       .  S
C305        C306   1.409       .  A
C306        N310   1.428       .  S
C307        C312   1.416       .  A
C307        C316   1.405       .  A
N308        O323   1.262       .  A
N308        O324   1.262       .  A
N310        O321   1.261       .  A
N310        O322   1.262       .  A
C312        N317   1.428       .  S
C312        C313   1.406       .  A
C313        C314   1.400       .  A
C313        H318   1.084       .  S
C314        C315   1.411       .  A
C315        N319   1.430       .  S
C315        C316   1.401       .  A
C316        H320   1.083       .  S
N317        O327   1.262       .  A
N317        O328   1.262       .  A
N319        O325   1.262       .  A
N319        O326   1.262       .  A
C329        C330   1.403       .  A
C329        C334   1.405       .  A
C329        H339   1.084       .  S
C330        C331   1.406   1_565  A
C330        C335   1.481       .  S
C331        N336   1.428       .  S
C331        C332   1.401       .  A
C332        C333   1.406       .  A
C332        H337   1.084       .  S
C333        C334   1.414   1_545  A
C334        N338   1.429       .  S
C335        C340   1.408       .  A
C335        C344   1.402       .  A
N336        O351   1.262       .  A
N336        O352   1.261       .  A
N338        O349   1.262       .  A
N338        O350   1.262       .  A
C340        N345   1.428   1_565  S
C340        C341   1.401   1_554  A
C341        C342   1.403       .  A
C341        H346   1.083       .  S
C342        C343   1.409       .  A
C343        N347   1.428       .  S
C343        C344   1.404   1_556  A
C344        H348   1.084       .  S
N345        O355   1.262   1_545  A
N345        O356   1.262       .  A
N347        O353   1.262       .  A
N347        O354   1.261       .  A
C357        C358   1.401       .  A
C357        C362   1.403       .  A
C357        H367   1.084       .  S
C358        C359   1.413   1_565  A
C358        C363   1.492       .  S
C359        N364   1.430       .  S
C359        C360   1.404       .  A
C360        C361   1.409       .  A
C360        H365   1.083       .  S
C361        C362   1.420   1_545  A
C362        N366   1.427       .  S
C363        C368   1.415       .  A
C363        C372   1.403       .  A
N364        O379   1.262       .  A
N364        O380   1.262       .  A
N366        O377   1.262       .  A
N366        O378   1.261   1_455  A
C368        N373   1.430   1_565  S
C368        C369   1.407       .  A
C369        C370   1.402       .  A
C369        H374   1.084       .  S
C370        C371   1.410       .  A
C371        N375   1.430       .  S
C371        C372   1.397       .  A
C372        H376   1.084       .  S
N373        O383   1.262       .  A
N373        O384   1.262       .  A
N375        O381   1.262       .  A
N375        O382   1.262       .  A
C385        C386   1.404       .  A
C385        C390   1.405       .  A
C385        H395   1.084       .  S
C386        C387   1.409       .  A
C386        C391   1.484       .  S
C387        N392   1.428       .  S
C387        C388   1.400       .  A
C388        C389   1.399       .  A
C388        H393   1.081       .  S
C389        C390   1.410       .  A
C390        N394   1.430       .  S
C391        C396   1.405       .  A
C391        C400   1.404   1_556  A
N392        O407   1.261   1_556  A
N392        O408   1.262       .  A
N394        O405   1.262       .  A
N394        O406   1.262       .  A
C396        N401   1.430       .  S
C396        C397   1.397       .  A
C397        C398   1.410   1_556  A
C397        H402   1.082       .  S
C398        C399   1.417       .  A
C399        N403   1.428       .  S
C399        C400   1.410       .  A
C400        H404   1.084       .  S
N401        O411   1.262       .  A
N401        O412   1.262       .  A
N403        O409   1.262       .  A
N403        O410   1.262       .  A
C413        C414   1.406       .  A
C413        C418   1.405       .  A
C413        H423   1.082       .  S
C414        C415   1.414       .  A
C414        C419   1.499       .  S
C415        N420   1.429   1_655  S
C415        C416   1.403       .  A
C416        C417   1.406       .  A
C416        H421   1.084   1_655  S
C417        C418   1.417       .  A
C418        N422   1.429       .  S
C419        C424   1.417       .  A
C419        C428   1.403       .  A
N420        O435   1.262       .  A
N420        O436   1.262       .  A
N422        O433   1.262       .  A
N422        O434   1.262       .  A
C424        N429   1.429       .  S
C424        C425   1.410       .  A
C425        C426   1.405       .  A
C425        H430   1.084       .  S
C426        C427   1.414       .  A
C427        N431   1.431       .  S
C427        C428   1.399       .  A
C428        H432   1.082       .  S
N429        O439   1.262       .  A
N429        O440   1.262       .  A
N431        O437   1.262       .  A
N431        O438   1.261       .  A
C441        C442   1.401       .  A
C441        C446   1.400       .  A
C441        H451   1.084       .  S
C442        C443   1.411       .  A
C442        C447   1.487       .  S
C443        N448   1.428       .  S
C443        C444   1.409       .  A
C444        C445   1.405       .  A
C444        H449   1.083       .  S
C445        C446   1.410       .  A
C446        N450   1.427       .  S
C447        C452   1.409       .  A
C447        C456   1.402       .  A
N448        O463   1.262       .  A
N448        O464   1.262       .  A
N450        O461   1.262       .  A
N450        O462   1.261       .  A
C452        N457   1.429       .  S
C452        C453   1.405       .  A
C453        C454   1.409       .  A
C453        H458   1.084       .  S
C454        C455   1.415       .  A
C455        N459   1.427       .  S
C455        C456   1.404       .  A
C456        H460   1.084       .  S
N457        O467   1.262       .  A
N457        O468   1.262       .  A
N459        O465   1.261       .  A
N459        O466   1.262       .  A
C469        C470   1.404       .  A
C469        C474   1.405       .  A
C469        H479   1.084       .  S
C470        C471   1.411   1_556  A
C470        C475   1.490       .  S
C471        N476   1.429       .  S
C471        C472   1.403       .  A
C472        C473   1.403   1_554  A
C472        H477   1.084       .  S
C473        C474   1.408       .  A
C474        N478   1.428       .  S
C475        C480   1.410   1_556  A
C475        C484   1.399       .  A
N476        O491   1.262   1_554  A
N476        O492   1.262       .  A
N478        O489   1.262       .  A
N478        O490   1.261       .  A
C480        N485   1.428       .  S
C480        C481   1.404       .  A
C481        C482   1.408       .  A
C481        H486   1.083       .  S
C482        C483   1.424   1_554  A
C483        N487   1.428       .  S
C483        C484   1.405       .  A
C484        H488   1.084       .  S
N485        O495   1.262       .  A
N485        O496   1.262       .  A
N487        O493   1.262       .  A
N487        O494   1.262       .  A
