geometry optimzed in LAMMPS
_audit_creation_date              2020-12-01 
_audit_creation_method            'lammps2cif' 
_symmetry_space_group_name_H-M    'P1' 
_symmetry_Int_Tables_number       1 
_symmetry_cell_setting            triclinic 
loop_ 
_symmetry_equiv_pos_as_xyz 
  x,y,z 
_cell_length_a                    43.75182764 
_cell_length_b                    43.39049881823724 
_cell_length_c                    43.981926811122285 
_cell_angle_alpha                 89.81280488342891 
_cell_angle_beta                  89.9517406671389 
_cell_angle_gamma                 90.00919072370999 
loop_ 
_atom_site_label 
_atom_site_type_symbol 
_atom_site_fract_x 
_atom_site_fract_y 
_atom_site_fract_z 
_atom_site_charge 
O1          O  0.41337390  0.00357086  0.19930365    -0.75200
O2          O  0.45094944  0.00258722  0.16351573    -0.54100
C3          C  0.42267758  0.00437761  0.17148901     0.78500
O4          O  0.49890450  0.08448733  0.30275203    -0.59800
O5          O  0.49784410  0.04605790  0.33833347    -0.52800
C6          C  0.49838499  0.07472862  0.33053156     0.70600
O7          O  0.49734742  0.08600106  0.19929299    -0.74400
O8          O  0.99840651  0.04902013  0.16454931    -0.54900
C9          C  0.49837619  0.07649984  0.17152219     0.76600
O10         O  0.41420737  0.99564025  0.30193612    -0.59500
O11         O  0.45197876  0.49572582  0.33795614    -0.52600
C12         C  0.42322454  0.99537310  0.32979055     0.73100
Zr13       Zr  0.43528323  0.99793553  0.25041209     2.54700
O14         O  0.39491479  0.03614685  0.25502144    -0.80100
O15         O  0.40026823  0.45626143  0.24856775    -0.93500
Zr16       Zr  0.49849912  0.06350468  0.25076389     2.64700
O17         O  0.45667406  0.10044893  0.25113260    -0.98400
O18         O  0.03170135  0.10613936  0.24896530    -0.80500
O19         O  0.46624571  0.03161591  0.22104385    -0.83900
O20         O  0.46662198  0.03075747  0.28021114    -2.18600
O21         O  0.99534793  0.41116203  0.30109115    -0.67200
O22         O  0.50057852  0.45006725  0.33728106    -0.51800
C23         C  0.99675512  0.42035394  0.32888834     0.71500
O24         O  0.08585246  0.49676735  0.19982455    -0.60100
O25         O  0.04505147  0.00002718  0.16302923    -0.52100
C26         C  0.07629891  0.49879683  0.17208349     0.73300
O27         O  0.08554370  0.50016769  0.30284844    -0.71500
O28         O  0.04793778  0.49833371  0.33859724    -0.50200
C29         C  0.07637147  0.49961333  0.33077202     0.74700
O30         O  0.00316718  0.41262622  0.19879646    -0.66900
O31         O  0.00011329  0.45133077  0.16360073    -0.54100
C32         C  0.00250369  0.42267669  0.17116948     0.73100
Zr33       Zr  0.99943772  0.43405861  0.25024396     2.77500
O34         O  0.03976213  0.39548705  0.25305573    -0.97600
O35         O  0.46597631  0.39290573  0.24583264    -0.78400
Zr36       Zr  0.06377371  0.49876898  0.25120059     2.70100
O37         O  0.10364380  0.45980856  0.25457850    -0.79700
O38         O  0.09492980  0.04677184  0.24596159    -0.98800
Zr39       Zr  0.99770424  0.00000818  0.19167671     2.21500
Zr40       Zr  0.50038485  0.49899301  0.31018991     2.11100
O41         O  0.03200053  0.46550896  0.28028997    -2.47500
O42         O  0.03217596  0.46636327  0.22115058    -0.79500
O43         O  0.46889544  0.46610740  0.28015303    -0.71700
O44         O  0.02893540  0.03348850  0.22149223    -2.32600
O45         O  0.46855056  0.46678588  0.22097514    -2.28800
O46         O  0.02943848  0.03262134  0.28076751    -0.73400
H47         H  0.45391192  0.04301176  0.29332007     0.78600
H48         H  0.04106923  0.04664849  0.20867492     0.79600
H49         H  0.04452733  0.45265144  0.29323541     0.81900
H50         H  0.45624465  0.45412473  0.20751442     0.79500
H51         H  0.01882067  0.12489381  0.24965793     0.42500
H52         H  0.08945053  0.05977847  0.26358954     0.41500
H53         H  0.09400226  0.44089995  0.24646189     0.41200
H54         H  0.04896660  0.39800775  0.27345181     0.39100
H55         H  0.44806778  0.40181623  0.23525054     0.42200
H56         H  0.40718346  0.44337148  0.23136696     0.37000
H57         H  0.40342454  0.05486460  0.24528624     0.43100
H58         H  0.46619609  0.12013704  0.24473615     0.39500
H59         H  0.02876835  0.37557054  0.25418623     0.44500
H60         H  0.38105946  0.46580949  0.24130766     0.43200
H61         H  0.44371971  0.09445633  0.23367411     0.43300
H62         H  0.11573232  0.03904468  0.25044679     0.43700
O63         O  0.50187746  0.19839314  0.08682989    -0.75200
O64         O  0.00081224  0.16184019  0.05056097    -0.54100
C65         C  0.50092173  0.17028352  0.07757653     0.78500
O66         O  0.41748779  0.30250965  0.00359485    -0.59800
O67         O  0.45586005  0.33806898  0.00121230    -0.52800
C68         C  0.42744536  0.33045634  0.00226577     0.70600
O69         O  0.41641822  0.19812324  0.00570597    -0.74400
O70         O  0.45328318  0.16163016  0.00117474    -0.54900
C71         C  0.42519761  0.16981120  0.00335381     0.76600
O72         O  0.50681895  0.30252407  0.08576674    -0.59500
O73         O  0.50433486  0.33835208  0.04775486    -0.52600
C74         C  0.50555062  0.33062128  0.07601338     0.73100
Zr75       Zr  0.50581615  0.24993822  0.06470594     2.54700
O76         O  0.47082668  0.25219223  0.10767430    -0.80100
O77         O  0.04893055  0.24711083  0.09831392    -0.93500
Zr78       Zr  0.43821927  0.25016263  0.00455822     2.64700
O79         O  0.40106819  0.25219710  0.04578104    -0.98400
O80         O  0.39466289  0.24984616  0.46819220    -0.80500
O81         O  0.47123855  0.21992678  0.03526698    -0.83900
O82         O  0.47189735  0.27990026  0.03490523    -2.18600
O83         O  0.08842833  0.29824300  0.49834414    -0.67200
O84         O  0.05152413  0.33535840  0.00073334    -0.51800
C85         C  0.07954769  0.32645058  0.49830757     0.71500
O86         O  0.00115884  0.19490922  0.41696844    -0.60100
O87         O  0.99849830  0.15959342  0.45553823    -0.52100
C88         C  0.99978335  0.16697081  0.42712658     0.73300
O89         O  0.99846712  0.29964416  0.41528114    -0.71500
O90         O  0.50235488  0.33661263  0.45126046    -0.50200
C91         C  0.00017262  0.32786963  0.42431736     0.74700
O92         O  0.08652792  0.19532266  0.99773957    -0.66900
O93         O  0.04784408  0.16009208  0.99993515    -0.54100
C94         C  0.07506076  0.16779251  0.49901092     0.73100
Zr95       Zr  0.06576420  0.24739305  0.99889126     2.77500
O96         O  0.09733422  0.24514539  0.45483992    -0.97600
O97         O  0.10769126  0.24719721  0.03523770    -0.78400
Zr98       Zr  0.99960444  0.24767139  0.43734619     2.70100
O99         O  0.04030454  0.24831155  0.39959731    -0.79700
O100        O  0.45560228  0.24703663  0.40048050    -0.98800
Zr101      Zr  0.00079453  0.18936971  0.00215040     2.21500
Zr102      Zr  0.50326631  0.30882445  0.00080881     2.11100
O103        O  0.03298425  0.27794420  0.46748263    -2.47500
O104        O  0.03183795  0.21755951  0.46884963    -0.79500
O105        O  0.03632985  0.27879096  0.03198960    -0.71700
O106        O  0.46641644  0.21922856  0.47080828    -2.32600
O107        O  0.03503817  0.21850081  0.03306693    -2.28800
O108        O  0.46732330  0.27911864  0.46942502    -0.73400
H109        H  0.46007331  0.29346257  0.04789601     0.78600
H110        H  0.45304218  0.20596886  0.45913212     0.79600
H111        H  0.04541032  0.29072046  0.45451527     0.81900
H112        H  0.04763880  0.20513683  0.04525657     0.79500
H113        H  0.40451304  0.24719908  0.44810614     0.42500
H114        H  0.44223958  0.26437175  0.40656201     0.41500
H115        H  0.05542008  0.23318063  0.40724464     0.41200
H116        H  0.09208532  0.26346751  0.44249741     0.39100
H117        H  0.09942619  0.23633173  0.05328395     0.42200
H118        H  0.04037232  0.24846568  0.11911495     0.37000
H119        H  0.45172142  0.26082390  0.09913148     0.43100
H120        H  0.40549347  0.23376492  0.05834595     0.39500
H121        H  0.11810558  0.24934995  0.46257244     0.44500
H122        H  0.05969543  0.26695260  0.09523398     0.43200
H123        H  0.40763684  0.26977957  0.05850294     0.43300
H124        H  0.46488140  0.25383031  0.38104107     0.43700
O125        O  0.29818028  0.08724438  0.99782835    -0.75200
O126        O  0.33483585  0.05023696  0.99820388    -0.54100
C127        C  0.32632896  0.07869571  0.99802642     0.78500
O128        O  0.20095425  0.50177055  0.08739271    -0.59800
O129        O  0.16335171  0.99935691  0.05020803    -0.52800
C130        C  0.17131652  0.00141537  0.07841179     0.70600
O131        O  0.30404408  0.50101517  0.08594190    -0.74400
O132        O  0.33909923  0.50085732  0.04773137    -0.54900
C133        C  0.33106240  0.00420426  0.07496769     0.76600
O134        O  0.19480566  0.08231047  0.99693474    -0.59500
O135        O  0.16058273  0.04292536  0.00044009    -0.52600
C136        C  0.16736117  0.07156581  0.99862452     0.73100
Zr137      Zr  0.24754442  0.06345283  0.99721305     2.54700
O138        O  0.24465465  0.10415875  0.03503650    -0.80100
O139        O  0.24368487  0.09827804  0.45462634    -0.93500
Zr140      Zr  0.25223911  0.50204577  0.06500717     2.64700
O141        O  0.25342200  0.05002253  0.09489898    -0.98400
O142        O  0.25222891  0.46734251  0.10854127    -0.80500
O143        O  0.27904018  0.03443969  0.03062840    -0.83900
O144        O  0.21965065  0.03266558  0.03200125    -2.18600
O145        O  0.19610864  0.99834364  0.41742387    -0.67200
O146        O  0.16116524  0.99796487  0.45570903    -0.51800
C147        C  0.16877139  0.49471703  0.42814147     0.71500
O148        O  0.30320825  0.41249150  0.00520962    -0.60100
O149        O  0.33861962  0.45090757  0.00133008    -0.52100
C150        C  0.33117638  0.42324797  0.50556815     0.73300
O151        O  0.20024290  0.41209439  0.00477198    -0.71500
O152        O  0.16421444  0.45007446  0.00484864    -0.50200
C153        C  0.17227364  0.42114298  0.50623156     0.74700
O154        O  0.30122949  0.99824701  0.41561965    -0.66900
O155        O  0.33700246  0.49627229  0.45323006    -0.54100
C156        C  0.32962669  0.49413719  0.42508770     0.73100
Zr157      Zr  0.24893471  0.99814742  0.43713463     2.77500
O158        O  0.24811006  0.44583408  0.40756291    -0.97600
O159        O  0.24815353  0.03804649  0.39813822    -0.78400
Zr160      Zr  0.25166179  0.43414484  0.00463986     2.70100
O161        O  0.25234480  0.38994232  0.47346935    -0.79700
O162        O  0.25045331  0.39938858  0.04818502    -0.98800
Zr163      Zr  0.31000404  0.49910940  0.00063049     2.21500
Zr164      Zr  0.19137047  0.99716216  0.00202631     2.11100
O165        O  0.22113839  0.46259335  0.47281077    -2.47500
O166        O  0.28029954  0.46349738  0.47184910    -0.79500
O167        O  0.21868618  0.03071299  0.46828605    -0.71700
O168        O  0.28152853  0.46770596  0.03493489    -2.32600
O169        O  0.27830982  0.03258812  0.46703528    -2.28800
O170        O  0.22232414  0.46722602  0.03597435    -0.73400
H171        H  0.20618626  0.04549842  0.04383141     0.78600
H172        H  0.29488513  0.45575036  0.04773723     0.79600
H173        H  0.20797848  0.44892439  0.46144243     0.81900
H174        H  0.29112918  0.04508026  0.45418192     0.79500
H175        H  0.24896720  0.44666929  0.09967321     0.42500
H176        H  0.26715909  0.40662749  0.06152986     0.41500
H177        H  0.25160475  0.37180102  0.48716879     0.41200
H178        H  0.22927731  0.44758812  0.39521893     0.39100
H179        H  0.24864441  0.02657515  0.37872056     0.42200
H180        H  0.26201231  0.09388316  0.44219815     0.37000
H181        H  0.23789828  0.12259176  0.02354477     0.43100
H182        H  0.23491564  0.06182598  0.08924855     0.39500
H183        H  0.26495610  0.44811090  0.39268711     0.44500
H184        H  0.24695045  0.11930963  0.46262544     0.43200
H185        H  0.24977866  0.04322172  0.11608974     0.43300
H186        H  0.23154547  0.40495350  0.05926500     0.43700
C187        C  0.38136826  0.35402225  0.52512994    -0.05700
C188        C  0.40410977  0.35534299  0.00280977     0.00200
C189        C  0.40380926  0.38023681  0.98179796    -0.08300
C190        C  0.37962697  0.40169522  0.98310078    -0.05700
C191        C  0.35638881  0.40027154  0.50602976     0.00200
C192        C  0.35779895  0.37591510  0.52759218    -0.08200
C193        C  0.33489524  0.37308790  0.55341291     0.62100
H194        H  0.38233089  0.33491596  0.54102361     0.12800
H195        H  0.37882406  0.42065675  0.96704145     0.12900
C196        C  0.42825080  0.38366851  0.95747764     0.62400
F197        F  0.34442934  0.35216558  0.57528115    -0.22800
F198        F  0.30714342  0.36312490  0.54213447    -0.20100
F199        F  0.32834194  0.39871968  0.06534301    -0.19800
F200        F  0.42842993  0.35842733  0.43950418    -0.19800
F201        F  0.45605214  0.39016540  0.97091466    -0.20200
F202        F  0.42163426  0.40734038  0.93734908    -0.22800
C203        C  0.37289419  0.15246116  0.48945789    -0.05700
C204        C  0.40079983  0.14550530  0.00208873     0.00200
C205        C  0.40605586  0.11339331  0.00657218    -0.08300
C206        C  0.38103345  0.09300246  0.00502835    -0.05700
C207        C  0.35099654  0.10289782  0.99873980     0.00200
C208        C  0.34861748  0.13142540  0.48691914    -0.08200
C209        C  0.32084467  0.14043062  0.46815778     0.62100
H210        H  0.37072006  0.17506249  0.47918546     0.12800
H211        H  0.38499757  0.06869654  0.00881212     0.12900
C212        C  0.43758081  0.10006982  0.01315160     0.62400
F213        F  0.31633317  0.17961540  0.97872569    -0.22800
F214        F  0.29446336  0.14433676  0.00848207    -0.20100
F215        F  0.31487994  0.11775593  0.44694781    -0.19800
F216        F  0.43656452  0.06873602  0.01915083    -0.19800
F217        F  0.44144922  0.12478339  0.55486171    -0.20200
F218        F  0.45644485  0.10432882  0.98822678    -0.22800
C219        C  0.15227250  0.37310794  0.48423696    -0.05700
C220        C  0.14798423  0.39749091  0.50460498     0.00200
C221        C  0.12126143  0.39933045  0.02228826    -0.08300
C222        C  0.09922845  0.37596467  0.01933271    -0.05700
C223        C  0.10347327  0.35063263  0.49887617     0.00200
C224        C  0.13052516  0.34952974  0.48095628    -0.08200
C225        C  0.13697249  0.32373193  0.45864336     0.62100
H226        H  0.17306422  0.37264709  0.47084908     0.12800
H227        H  0.07855346  0.37676230  0.03288099     0.12900
C228        C  0.11601063  0.42478817  0.04511714     0.62400
F229        F  0.16111679  0.33075152  0.43943949    -0.22800
F230        F  0.11167403  0.31833109  0.44070123    -0.20100
F231        F  0.14408396  0.29748965  0.97487877    -0.19800
F232        F  0.10945909  0.45126253  0.52985214    -0.19800
F233        F  0.14191732  0.42917512  0.06260298    -0.20200
F234        F  0.09220849  0.41772005  0.06468443    -0.22800
C235        C  0.09323255  0.11636926  0.51544286    -0.05700
C236        C  0.09814252  0.14288120  0.49770375     0.00200
C237        C  0.12337959  0.14227282  0.97527106    -0.08300
C238        C  0.14482970  0.11835101  0.97671583    -0.05700
C239        C  0.14206147  0.09410276  0.99763112     0.00200
C240        C  0.11630023  0.09289560  0.01731793    -0.08200
C241        C  0.11173458  0.06707819  0.04033712     0.62100
H242        H  0.07239485  0.11483295  0.52867309     0.12800
H243        H  0.16438839  0.11864546  0.96157840     0.12900
C244        C  0.13099870  0.17178397  0.45805343     0.62400
F245        F  0.08599823  0.07166444  0.05809637    -0.22800
F246        F  0.10803357  0.03927034  0.02554642    -0.20100
F247        F  0.13223556  0.06256029  0.55896773    -0.19800
F248        F  0.14022356  0.19307645  0.96548014    -0.19800
F249        F  0.10495381  0.17835797  0.44142958    -0.20200
F250        F  0.15405113  0.16497930  0.43753631    -0.22800
C251        C  0.40573390  0.00864869  0.38235599    -0.05700
C252        C  0.39910929  0.99471414  0.35426321     0.00200
C253        C  0.36969311  0.98111266  0.35029029    -0.08300
C254        C  0.34825186  0.48051387  0.37312617    -0.05700
C255        C  0.35495296  0.49314128  0.40179196     0.00200
C256        C  0.38519489  0.50447468  0.40697076    -0.08200
C257        C  0.39536510  0.51770248  0.43735127     0.62100
H258        H  0.42809928  0.01886971  0.38531832     0.12800
H259        H  0.32558455  0.47128751  0.36942064     0.12900
C260        C  0.36069083  0.96421304  0.32143631     0.62400
F261        F  0.42517976  0.52831221  0.43649666    -0.22800
F262        F  0.39410707  0.49517086  0.45963378    -0.20100
F263        F  0.37252412  0.04924414  0.44237363    -0.19800
F264        F  0.38213181  0.44248202  0.31132491    -0.19800
F265        F  0.35671564  0.98517265  0.29803304    -0.20200
F266        F  0.33355329  0.94813962  0.32487557    -0.22800
C267        C  0.15111996  0.50948393  0.37632913    -0.05700
C268        C  0.14366605  0.49615126  0.40457085     0.00200
C269        C  0.11317138  0.48523368  0.40889201    -0.08300
C270        C  0.09228269  0.48683197  0.38427177    -0.05700
C271        C  0.10008659  0.49967839  0.35577276     0.00200
C272        C  0.12997795  0.51227330  0.35227701    -0.08200
C273        C  0.13990240  0.52956279  0.32382197     0.62100
H274        H  0.17404422  0.51832116  0.37320792     0.12800
H275        H  0.06773168  0.98292062  0.38802952     0.12900
C276        C  0.10093527  0.97865534  0.43981052     0.62400
F277        F  0.16710338  0.54528759  0.32813362    -0.22800
F278        F  0.12115444  0.04892618  0.31167459    -0.20100
F279        F  0.14418574  0.50903148  0.30023056    -0.19800
F280        F  0.10249262  0.00257602  0.46047027    -0.19800
F281        F  0.12151628  0.44841103  0.44836124    -0.20200
F282        F  0.07304274  0.45976811  0.43702566    -0.22800
C283        C  0.12916613  0.51102778  0.15478919    -0.05700
C284        C  0.09990521  0.50007138  0.14720395     0.00200
C285        C  0.09194630  0.99178167  0.11476866    -0.08300
C286        C  0.11651847  0.99343686  0.09385585    -0.05700
C287        C  0.14628176  0.00254844  0.10222862     0.00200
C288        C  0.15336963  0.51253211  0.13359491    -0.08200
C289        C  0.18378226  0.52573820  0.14406167     0.62100
H290        H  0.13304331  0.51859981  0.17788496     0.12800
H291        H  0.11254878  0.98727019  0.07048756     0.12900
C292        C  0.06123795  0.97959914  0.10367697     0.62400
F293        F  0.17780885  0.04028683  0.17197832    -0.22800
F294        F  0.18866237  0.05076270  0.12353893    -0.20100
F295        F  0.20576170  0.50284702  0.14447275    -0.19800
F296        F  0.03896045  0.00203830  0.10588714    -0.19800
F297        F  0.05489254  0.45417203  0.12377550    -0.20200
F298        F  0.06403381  0.46939375  0.07609842    -0.22800
C299        C  0.40633465  0.99252565  0.11861088    -0.05700
C300        C  0.39938527  0.00649859  0.14661289     0.00200
C301        C  0.37099057  0.02214593  0.14964466    -0.08300
C302        C  0.34975545  0.02070687  0.12563127    -0.05700
C303        C  0.35618576  0.00570851  0.09806875     0.00200
C304        C  0.38566747  0.99240933  0.09399712    -0.08200
C305        C  0.39557552  0.97782882  0.06418280     0.62100
H306        H  0.42828695  0.98129400  0.11617923     0.12800
H307        H  0.32766336  0.03163081  0.12825118     0.12900
C308        C  0.36305398  0.04114332  0.17750827     0.62400
F309        F  0.42448242  0.96497173  0.06603322    -0.22800
F310        F  0.39641968  0.00004895  0.04156562    -0.20100
F311        F  0.37534075  0.44992019  0.05937536    -0.19800
F312        F  0.38701473  0.06070034  0.18447163    -0.19800
F313        F  0.35881758  0.51743871  0.20383370    -0.20200
F314        F  0.33520153  0.55292287  0.17561122    -0.22800
C315        C  0.47473757  0.09819434  0.37687635    -0.05700
C316        C  0.49848254  0.09831263  0.35526010     0.00200
C317        C  0.02557765  0.11813372  0.36006766    -0.08300
C318        C  0.02465112  0.13994364  0.38385029    -0.05700
C319        C  0.99988847  0.14171490  0.40411771     0.00200
C320        C  0.47318868  0.12041304  0.40036910    -0.08200
C321        C  0.44599602  0.12085937  0.42175457     0.62100
H322        H  0.45702941  0.08087135  0.37484101     0.12800
H323        H  0.04322960  0.15619866  0.38660929     0.12900
C324        C  0.05303209  0.11728510  0.33895245     0.62400
F325        F  0.42379120  0.09988267  0.41325670    -0.22800
F326        F  0.43283103  0.14984967  0.42181163    -0.20100
F327        F  0.45551681  0.11356340  0.45079601    -0.19800
F328        F  0.04449262  0.12723781  0.31033489    -0.19800
F329        F  0.06435640  0.08757659  0.33708566    -0.20200
F330        F  0.07639484  0.13618527  0.34905434    -0.22800
C331        C  0.01978340  0.39775543  0.37526544    -0.05700
C332        C  0.99654845  0.39649850  0.35326965     0.00200
C333        C  0.47404603  0.37632902  0.35604638    -0.08300
C334        C  0.47556099  0.35394616  0.37927259    -0.05700
C335        C  0.99952928  0.35223370  0.40066735     0.00200
C336        C  0.02191928  0.37579059  0.39881868    -0.08200
C337        C  0.04866230  0.37703260  0.42077117     0.62100
H338        H  0.03666435  0.41595473  0.37355667     0.12800
H339        H  0.45743909  0.33710332  0.38172557     0.12900
C340        C  0.44633885  0.37751478  0.33537495     0.62400
F341        F  0.07088085  0.39762828  0.41122325    -0.22800
F342        F  0.06209471  0.34830222  0.42292710    -0.20100
F343        F  0.03859409  0.38605369  0.44918124    -0.19800
F344        F  0.45465404  0.36920920  0.30623078    -0.19800
F345        F  0.43441205  0.40703692  0.33500452    -0.20200
F346        F  0.42353571  0.35763486  0.34504743    -0.22800
C347        C  0.02826379  0.35674034  0.11953852    -0.05700
C348        C  0.50534499  0.35568443  0.09919788     0.00200
C349        C  0.48260872  0.37904697  0.09989316    -0.08300
C350        C  0.48365936  0.40154361  0.12302982    -0.05700
C351        C  0.00413035  0.39952162  0.14624725     0.00200
C352        C  0.02879730  0.37844196  0.14332218    -0.08200
C353        C  0.05572461  0.37881862  0.16504102     0.62100
H354        H  0.04665723  0.34020088  0.11721782     0.12800
H355        H  0.46665191  0.41967657  0.12362645     0.12900
C356        C  0.45646555  0.37949292  0.07720341     0.62400
F357        F  0.07884903  0.35920745  0.15570397    -0.22800
F358        F  0.04624639  0.36938741  0.19352868    -0.20100
F359        F  0.06775399  0.40822705  0.16684556    -0.19800
F360        F  0.44332534  0.35056175  0.07526336    -0.19800
F361        F  0.46725920  0.38826507  0.04893109    -0.20200
F362        F  0.43375106  0.39990502  0.08572711    -0.22800
C363        C  0.47280407  0.11739461  0.14098328    -0.05700
C364        C  0.49923979  0.10009289  0.14704248     0.00200
C365        C  0.02462070  0.10571720  0.13022574    -0.08300
C366        C  0.02372919  0.12792734  0.10682887    -0.05700
C367        C  0.49940229  0.14600912  0.10122351     0.00200
C368        C  0.47247107  0.14047520  0.11828518    -0.08200
C369        C  0.44373644  0.15925904  0.11268877     0.62100
H370        H  0.45248356  0.11281778  0.15434314     0.12800
H371        H  0.04339137  0.13131450  0.09219485     0.12900
C372        C  0.05380532  0.08778593  0.13600063     0.62400
F373        F  0.41912113  0.14808423  0.12914741    -0.22800
F374        F  0.43606751  0.15856306  0.08219331    -0.20100
F375        F  0.44878104  0.18945317  0.12122827    -0.19800
F376        F  0.04912547  0.05717862  0.12924658    -0.19800
F377        F  0.06220685  0.09045332  0.16619581    -0.20200
F378        F  0.07782947  0.09840546  0.11834089    -0.22800
O379        O  0.41334549  0.00207025  0.69820178    -0.75200
O380        O  0.45126567  0.00391615  0.66279505    -0.54100
C381        C  0.42287551  0.00411647  0.67056093     0.78500
O382        O  0.49778260  0.08346546  0.80413425    -0.59800
O383        O  0.49826500  0.04439858  0.83891710    -0.52800
C384        C  0.49825492  0.07319287  0.83171166     0.70600
O385        O  0.49787265  0.08728176  0.70113173    -0.74400
O386        O  0.99883636  0.04999457  0.66482793    -0.54900
C387        C  0.50008503  0.07839562  0.67324427     0.76600
O388        O  0.41218750  0.99560553  0.80031277    -0.59500
O389        O  0.45175023  0.49566545  0.83846774    -0.52600
C390        C  0.42133477  0.99517321  0.82809257     0.73100
Zr391      Zr  0.43452023  0.99780964  0.74952944     2.54700
O392        O  0.39416708  0.03619203  0.75278816    -0.80100
O393        O  0.39728008  0.45819436  0.74691416    -0.93500
Zr394      Zr  0.49750108  0.06365265  0.75191133     2.64700
O395        O  0.45747281  0.10271121  0.75244481    -0.98400
O396        O  0.03616499  0.10598290  0.75565641    -0.80500
O397        O  0.46560784  0.03225109  0.72110940    -0.83900
O398        O  0.46532350  0.03027120  0.78032215    -2.18600
O399        O  0.99750697  0.41229690  0.80101322    -0.67200
O400        O  0.49978331  0.44926117  0.83789519    -0.51800
C401        C  0.99815042  0.42108367  0.82892785     0.71500
O402        O  0.08466854  0.49937647  0.69911299    -0.60100
O403        O  0.04662231  0.00219001  0.66348974    -0.52100
C404        C  0.07503778  0.50056935  0.67138146     0.73300
O405        O  0.08560236  0.50200829  0.80185903    -0.71500
O406        O  0.04862916  0.49918863  0.83804914    -0.50200
C407        C  0.07694801  0.50110149  0.82986824     0.74700
O408        O  0.00260033  0.41487618  0.69836498    -0.66900
O409        O  0.99880731  0.45347010  0.66321205    -0.54100
C410        C  0.00135384  0.42480903  0.67072633     0.73100
Zr411      Zr  0.00044215  0.43530882  0.75023365     2.77500
O412        O  0.04121760  0.39720133  0.75358251    -0.97600
O413        O  0.45889319  0.39770265  0.74741117    -0.78400
Zr414      Zr  0.06328921  0.50142091  0.75065299     2.70100
O415        O  0.10587253  0.46536829  0.75144605    -0.79700
O416        O  0.09861977  0.04432718  0.74622070    -0.98800
Zr417      Zr  0.99912368  0.00140907  0.69188894     2.21500
Zr418      Zr  0.50016063  0.49775205  0.81070679     2.11100
O419        O  0.03276171  0.46714440  0.78001785    -2.47500
O420        O  0.03219229  0.46838715  0.72087174    -0.79500
O421        O  0.46807005  0.46549015  0.78060949    -0.71700
O422        O  0.03120505  0.03401153  0.72173401    -2.32600
O423        O  0.46760687  0.46687120  0.72131118    -2.28800
O424        O  0.03156160  0.03245769  0.78078263    -0.73400
H425        H  0.45252506  0.04224637  0.79359623     0.78600
H426        H  0.04356953  0.04701618  0.70895738     0.79600
H427        H  0.04570159  0.45452081  0.79277620     0.81900
H428        H  0.45518868  0.45445301  0.70771319     0.79500
H429        H  0.04549188  0.10726680  0.73518321     0.42500
H430        H  0.09243171  0.05839899  0.76278308     0.41500
H431        H  0.09626482  0.44493458  0.74852436     0.41200
H432        H  0.05398481  0.40374375  0.77097558     0.39100
H433        H  0.46688718  0.38062309  0.73483484     0.42200
H434        H  0.40473186  0.44130071  0.76013782     0.37000
H435        H  0.40493461  0.05563220  0.75758543     0.43100
H436        H  0.44396750  0.09683420  0.76956867     0.39500
H437        H  0.03097614  0.37816412  0.76076974     0.44500
H438        H  0.39970686  0.45015907  0.72600857     0.43200
H439        H  0.46787968  0.12167329  0.75946099     0.43300
H440        H  0.11870326  0.03601648  0.75250962     0.43700
O441        O  0.49996118  0.20127576  0.58825392    -0.75200
O442        O  0.99910435  0.16277662  0.55142456    -0.54100
C443        C  0.49954560  0.17294561  0.57977745     0.78500
O444        O  0.41671084  0.30288476  0.50367918    -0.59800
O445        O  0.45511796  0.33812222  0.49843897    -0.52800
C446        C  0.42678558  0.33075149  0.50106430     0.70600
O447        O  0.41545387  0.19773661  0.50538460    -0.74400
O448        O  0.45256848  0.16103705  0.50410295    -0.54900
C449        C  0.42446262  0.16936407  0.50503597     0.76600
O450        O  0.50496180  0.30489914  0.58397068    -0.59500
O451        O  0.50181123  0.33988239  0.54531803    -0.52600
C452        C  0.50316955  0.33278928  0.57374808     0.73100
Zr453      Zr  0.50378771  0.25181369  0.56439718     2.54700
O454        O  0.46501647  0.25561515  0.60398950    -0.80100
O455        O  0.04334562  0.25028128  0.60216727    -0.93500
Zr456      Zr  0.43691048  0.25013878  0.50410950     2.64700
O457        O  0.40199283  0.25071119  0.54727246    -0.98400
O458        O  0.39877264  0.24929605  0.96559612    -0.80500
O459        O  0.46979623  0.22068317  0.53550856    -0.83900
O460        O  0.47036534  0.28095382  0.53358533    -2.18600
O461        O  0.08861772  0.29850539  0.99834587    -0.67200
O462        O  0.05137239  0.33522219  0.49906161    -0.51800
C463        C  0.07966466  0.32670319  0.99931714     0.71500
O464        O  0.99911408  0.19586645  0.91672579    -0.60100
O465        O  0.00023723  0.15993156  0.95481294    -0.52100
C466        C  0.99939329  0.16783145  0.92652525     0.73300
O467        O  0.00011823  0.30012164  0.91560481    -0.71500
O468        O  0.50263240  0.33750977  0.95340883    -0.50200
C469        C  0.00148579  0.32831478  0.92477369     0.74700
O470        O  0.08496581  0.19567087  0.49903360    -0.66900
O471        O  0.04669406  0.16006459  0.50061337    -0.54100
C472        C  0.07623754  0.16754501  0.99791513     0.73100
Zr473      Zr  0.06454777  0.24772464  0.49945731     2.77500
O474        O  0.09883091  0.24375760  0.95458434    -0.97600
O475        O  0.10644313  0.24691267  0.53584842    -0.78400
Zr476      Zr  0.99997542  0.24818058  0.93762746     2.70100
O477        O  0.04148627  0.24666452  0.90078161    -0.79700
O478        O  0.45213839  0.24993695  0.90611774    -0.98800
Zr479      Zr  0.99964922  0.18952984  0.50254839     2.21500
Zr480      Zr  0.50222980  0.30883883  0.49913490     2.11100
O481        O  0.03386128  0.27804052  0.96749336    -2.47500
O482        O  0.03253875  0.21770575  0.96836580    -0.79500
O483        O  0.03485874  0.27936393  0.53215934    -0.71700
O484        O  0.46737124  0.21965933  0.97069697    -2.32600
O485        O  0.03324296  0.21935772  0.53352986    -2.28800
O486        O  0.46837150  0.27996832  0.97059369    -0.73400
H487        H  0.45847448  0.29479784  0.54613517     0.78600
H488        H  0.45391876  0.20668225  0.95877018     0.79600
H489        H  0.04618866  0.29094729  0.95457336     0.81900
H490        H  0.04583203  0.20612555  0.54601626     0.79500
H491        H  0.37982523  0.24380129  0.97668180     0.42500
H492        H  0.44099673  0.26868172  0.91255203     0.41500
H493        H  0.05359569  0.22826049  0.90652106     0.41200
H494        H  0.09364790  0.26179724  0.94181457     0.39100
H495        H  0.09796925  0.25682943  0.55425970     0.42200
H496        H  0.05674227  0.26770116  0.59625623     0.37000
H497        H  0.45474007  0.27564874  0.60053836     0.43100
H498        H  0.38138182  0.25002445  0.53801214     0.39500
H499        H  0.11956128  0.24808812  0.96239679     0.44500
H500        H  0.05543730  0.23167102  0.59721246     0.43200
H501        H  0.40449020  0.23027895  0.55705933     0.43300
H502        H  0.45952728  0.25481330  0.88538104     0.43700
O503        O  0.29893760  0.08723485  0.50068271    -0.75200
O504        O  0.33533675  0.04978074  0.49917304    -0.54100
C505        C  0.32694190  0.07819953  0.50003058     0.78500
O506        O  0.20078350  0.50506513  0.58839659    -0.59800
O507        O  0.16404714  0.00097819  0.55103940    -0.52800
C508        C  0.17216213  0.00366276  0.57913901     0.70600
O509        O  0.30451652  0.50491730  0.58564353    -0.74400
O510        O  0.33916384  0.50391913  0.54714061    -0.54900
C511        C  0.33134930  0.00406724  0.57442721     0.76600
O512        O  0.19552448  0.08403707  0.50105375    -0.59500
O513        O  0.16112349  0.04466307  0.50126171    -0.52600
C514        C  0.16801310  0.07332815  0.50138728     0.73100
Zr515      Zr  0.24791282  0.06452776  0.49876036     2.54700
O516        O  0.24659089  0.10718314  0.53460195    -0.80100
O517        O  0.24335236  0.09921238  0.95466395    -0.93500
Zr518      Zr  0.25201376  0.50397787  0.56555723     2.64700
O519        O  0.25543643  0.04736778  0.59836141    -0.98400
O520        O  0.25223694  0.46924756  0.60913973    -0.80500
O521        O  0.27926361  0.03462946  0.53148369    -0.83900
O522        O  0.21998653  0.03315265  0.53296137    -2.18600
O523        O  0.19706655  0.99677198  0.91696197    -0.67200
O524        O  0.16194217  0.99687673  0.95506953    -0.51800
C525        C  0.17034011  0.49816250  0.92666029     0.71500
O526        O  0.30356177  0.41307740  0.50738858    -0.60100
O527        O  0.33847850  0.45188785  0.50279661    -0.52100
C528        C  0.33094431  0.42231029  0.00372329     0.73300
O529        O  0.20021910  0.41168978  0.50684833    -0.71500
O530        O  0.16407079  0.44951362  0.50557755    -0.50200
C531        C  0.17234044  0.42165644  0.00506272     0.74700
O532        O  0.30175757  0.99666772  0.91573457    -0.66900
O533        O  0.33844327  0.49745965  0.95354374    -0.54100
C534        C  0.33056053  0.49612243  0.92546547     0.73100
Zr535      Zr  0.24955635  0.99545415  0.93700610     2.77500
O536        O  0.24912314  0.45097361  0.90389686    -0.97600
O537        O  0.24844213  0.03153510  0.89452032    -0.78400
Zr538      Zr  0.25162171  0.43404611  0.50751154     2.70100
O539        O  0.25349235  0.39280244  0.96740297    -0.79700
O540        O  0.25118551  0.40148349  0.55270680    -0.98800
Zr541      Zr  0.30921606  0.49954372  0.50073663     2.21500
Zr542      Zr  0.19111690  0.99834583  0.50249023     2.11100
O543        O  0.22129902  0.46408067  0.97101194    -2.47500
O544        O  0.28079306  0.46460401  0.97031204    -0.79500
O545        O  0.21900642  0.02872597  0.96716257    -0.71700
O546        O  0.28150021  0.46891671  0.53644496    -2.32600
O547        O  0.27828563  0.03112092  0.96614368    -2.28800
O548        O  0.22199686  0.46797141  0.53780481    -0.73400
H549        H  0.20685515  0.04596427  0.54516934     0.78600
H550        H  0.29517173  0.45759274  0.54949224     0.79600
H551        H  0.20803809  0.45092019  0.95921621     0.81900
H552        H  0.29092331  0.04358920  0.95301437     0.79500
H553        H  0.24394422  0.44962358  0.60126193     0.42500
H554        H  0.26865115  0.40874900  0.56504558     0.41500
H555        H  0.23752159  0.39818009  0.95236142     0.41200
H556        H  0.26004302  0.45780176  0.88533713     0.39100
H557        H  0.26142985  0.04896358  0.90109404     0.42200
H558        H  0.26231602  0.09623357  0.94276602     0.37000
H559        H  0.26201961  0.10179012  0.55019676     0.43100
H560        H  0.23892281  0.06144746  0.59174349     0.39500
H561        H  0.26310673  0.43588967  0.91351360     0.44500
H562        H  0.24541273  0.11990478  0.96386300     0.43200
H563        H  0.24906778  0.03990314  0.61867391     0.43300
H564        H  0.23289003  0.40814408  0.56419702     0.43700
C565        C  0.38062070  0.35293593  0.02443888    -0.05700
C566        C  0.40388729  0.35599462  0.50244753     0.00200
C567        C  0.40348218  0.38128780  0.48185044    -0.08300
C568        C  0.37958948  0.40298908  0.48408140    -0.05700
C569        C  0.35584769  0.39896844  0.00443190     0.00200
C570        C  0.35656433  0.37441007  0.02585969    -0.08200
C571        C  0.33246333  0.37095180  0.05052701     0.62100
H572        H  0.38123741  0.33380647  0.04031938     0.12800
H573        H  0.37842914  0.42204774  0.46815765     0.12900
C574        C  0.42730082  0.38490690  0.45689218     0.62400
F575        F  0.34076601  0.34922148  0.07211949    -0.22800
F576        F  0.30516903  0.36160240  0.03772665    -0.20100
F577        F  0.33117480  0.40129911  0.56751891    -0.19800
F578        F  0.43057865  0.35668187  0.94097026    -0.19800
F579        F  0.45569827  0.39033593  0.46955325    -0.20200
F580        F  0.42068702  0.40938540  0.43771592    -0.22800
C581        C  0.37088112  0.15537730  0.99559176    -0.05700
C582        C  0.40038918  0.14498583  0.50423906     0.00200
C583        C  0.40383961  0.11496299  0.51701419    -0.08300
C584        C  0.37900672  0.09434681  0.51551520    -0.05700
C585        C  0.35147169  0.10200605  0.50088688     0.00200
C586        C  0.34596251  0.13498640  0.99351241    -0.08200
C587        C  0.31497265  0.14831500  0.98487782     0.62100
H588        H  0.36704027  0.17967707  0.99164435     0.12800
H589        H  0.38099445  0.07171191  0.52575886     0.12900
C590        C  0.43318427  0.10429268  0.53234118     0.62400
F591        F  0.32532738  0.16777267  0.45246682    -0.22800
F592        F  0.29579362  0.14435685  0.48692203    -0.20100
F593        F  0.30440413  0.13396715  0.95894020    -0.19800
F594        F  0.43003218  0.07549049  0.54565662    -0.19800
F595        F  0.45007387  0.11421543  0.03836363    -0.20200
F596        F  0.45638020  0.10220725  0.51111667    -0.22800
C597        C  0.15209486  0.37328096  0.98416220    -0.05700
C598        C  0.14800617  0.39800277  0.00413862     0.00200
C599        C  0.12097428  0.39865699  0.52236733    -0.08300
C600        C  0.09907070  0.37526806  0.51893372    -0.05700
C601        C  0.10350998  0.35097340  0.99966899     0.00200
C602        C  0.13030964  0.34970222  0.98145292    -0.08200
C603        C  0.13619042  0.32386307  0.95907536     0.62100
H604        H  0.17271674  0.37259051  0.97052844     0.12800
H605        H  0.07834169  0.37576290  0.53241271     0.12900
C606        C  0.11527390  0.42405833  0.54521179     0.62400
F607        F  0.15987503  0.33083042  0.93931553    -0.22800
F608        F  0.11038341  0.31854100  0.94174490    -0.20100
F609        F  0.14449820  0.29733110  0.47454611    -0.19800
F610        F  0.10886332  0.45166513  0.02973271    -0.19800
F611        F  0.14049573  0.42763411  0.56382912    -0.20200
F612        F  0.09039685  0.41754696  0.56361670    -0.22800
C613        C  0.09508915  0.11723381  0.01623963    -0.05700
C614        C  0.09871908  0.14220789  0.99621831     0.00200
C615        C  0.12506538  0.14518478  0.47977717    -0.08300
C616        C  0.14706320  0.12189740  0.48206562    -0.05700
C617        C  0.14274622  0.09593557  0.50054052     0.00200
C618        C  0.11505335  0.09258905  0.51716541    -0.08200
C619        C  0.10899473  0.06507961  0.53781667     0.62100
H620        H  0.07580756  0.11741895  0.03170640     0.12800
H621        H  0.16810908  0.12384411  0.46919746     0.12900
C622        C  0.12775469  0.16745977  0.95166474     0.62400
F623        F  0.08167169  0.06793136  0.55336388    -0.22800
F624        F  0.10719524  0.03832819  0.52095680    -0.20100
F625        F  0.13678140  0.06550185  0.05943017    -0.19800
F626        F  0.13990390  0.19736701  0.47441251    -0.19800
F627        F  0.10015161  0.17510851  0.93829872    -0.20200
F628        F  0.14736174  0.15821288  0.92868961    -0.22800
C629        C  0.40303172  0.01287312  0.87851984    -0.05700
C630        C  0.39757144  0.99500812  0.85250645     0.00200
C631        C  0.36991649  0.97786463  0.85062173    -0.08300
C632        C  0.35126381  0.47576736  0.87706695    -0.05700
C633        C  0.35534245  0.49522330  0.90216473     0.00200
C634        C  0.38240239  0.51332104  0.90400026    -0.08200
C635        C  0.38842275  0.53511781  0.93032912     0.62100
H636        H  0.42411425  0.02590644  0.87960285     0.12800
H637        H  0.33063144  0.46201251  0.87604238     0.12900
C638        C  0.36274271  0.95706662  0.82378063     0.62400
F639        F  0.41311112  0.55428982  0.92468678    -0.22800
F640        F  0.39477389  0.51825135  0.95629683    -0.20100
F641        F  0.36485243  0.05444341  0.93563262    -0.19800
F642        F  0.39286655  0.43363011  0.82248788    -0.19800
F643        F  0.35735501  0.97460356  0.79804648    -0.20200
F644        F  0.33705705  0.93914046  0.82893218    -0.22800
C645        C  0.15325976  0.50909888  0.87352557    -0.05700
C646        C  0.14515191  0.49960987  0.90309228     0.00200
C647        C  0.11385013  0.49220270  0.90872719    -0.08300
C648        C  0.09284235  0.49276660  0.88421340    -0.05700
C649        C  0.10116067  0.50175591  0.85447716     0.00200
C650        C  0.13196871  0.51144482  0.84952237    -0.08200
C651        C  0.14265106  0.52584144  0.81974920     0.62100
H652        H  0.17679610  0.51544670  0.86930126     0.12800
H653        H  0.07023850  0.97933171  0.88572713     0.12900
C654        C  0.10376595  0.97195342  0.93698419     0.62400
F655        F  0.17177524  0.53812870  0.82199739    -0.22800
F656        F  0.12009421  0.05194884  0.81323047    -0.20100
F657        F  0.14329382  0.50392544  0.79701147    -0.19800
F658        F  0.10438488  0.99316247  0.96037525    -0.19800
F659        F  0.11825799  0.45863913  0.95143248    -0.20200
F660        F  0.07151020  0.47573220  0.94001408    -0.22800
C661        C  0.12772318  0.51388099  0.65447874    -0.05700
C662        C  0.09878461  0.50215306  0.64661582     0.00200
C663        C  0.09403155  0.99140440  0.61609262    -0.08300
C664        C  0.11836013  0.99338481  0.59509437    -0.05700
C665        C  0.14727450  0.00526375  0.60277859     0.00200
C666        C  0.15189494  0.51664350  0.63339411    -0.08200
C667        C  0.18083691  0.53316659  0.64336570     0.62100
H668        H  0.13129723  0.52150695  0.67760842     0.12800
H669        H  0.11510250  0.98470692  0.57238993     0.12900
C670        C  0.06482900  0.97497369  0.60647723     0.62400
F671        F  0.17733667  0.04844315  0.67011077    -0.22800
F672        F  0.18823595  0.05637010  0.62114639    -0.20100
F673        F  0.20462910  0.51240018  0.64619358    -0.19800
F674        F  0.04001587  0.99448752  0.60752202    -0.19800
F675        F  0.05567076  0.45467504  0.62147728    -0.20200
F676        F  0.06424715  0.47232756  0.57439114    -0.22800
C677        C  0.40702743  0.99318346  0.61736891    -0.05700
C678        C  0.39962450  0.00605653  0.64576406     0.00200
C679        C  0.37066770  0.02044806  0.64943777    -0.08300
C680        C  0.34961750  0.01933580  0.62536660    -0.05700
C681        C  0.35648177  0.00545238  0.59737481     0.00200
C682        C  0.38624718  0.99295568  0.59286242    -0.08200
C683        C  0.39625058  0.97888342  0.56281224     0.62100
H684        H  0.42934722  0.98279258  0.61460836     0.12800
H685        H  0.32723035  0.02951137  0.62837507     0.12900
C686        C  0.36178905  0.03769477  0.67814319     0.62400
F687        F  0.42543436  0.96667026  0.56434448    -0.22800
F688        F  0.39647574  0.00127166  0.54034575    -0.20100
F689        F  0.37954087  0.45776819  0.55559842    -0.19800
F690        F  0.38494485  0.05772967  0.68632585    -0.19800
F691        F  0.35812855  0.51845186  0.70334039    -0.20200
F692        F  0.33680609  0.55623364  0.67599948    -0.22800
C693        C  0.47989500  0.12291953  0.85247993    -0.05700
C694        C  0.49817677  0.09666061  0.85655479     0.00200
C695        C  0.02638957  0.10321461  0.87473515    -0.08300
C696        C  0.02533434  0.12600994  0.89760639    -0.05700
C697        C  0.99864117  0.14307000  0.90323662     0.00200
C698        C  0.47908154  0.14710954  0.87378013    -0.08200
C699        C  0.45870706  0.17473149  0.86720310     0.62100
H700        H  0.46625998  0.12448389  0.83199175     0.12800
H701        H  0.04540124  0.13078597  0.91121501     0.12900
C702        C  0.05542079  0.08482290  0.86958785     0.62400
F703        F  0.43916770  0.16935752  0.84302565    -0.22800
F704        F  0.47657060  0.19996406  0.85981033    -0.20100
F705        F  0.44088032  0.18138615  0.89231835    -0.19800
F706        F  0.06410608  0.08669645  0.83937497    -0.19800
F707        F  0.05022138  0.05433680  0.87715817    -0.20200
F708        F  0.07939065  0.09549331  0.88717211    -0.22800
C709        C  0.01695798  0.40168931  0.87853936    -0.05700
C710        C  0.99816539  0.39690836  0.85309234     0.00200
C711        C  0.47921024  0.37102340  0.85290364    -0.08300
C712        C  0.47991764  0.35031366  0.87753261    -0.05700
C713        C  0.00096994  0.35287403  0.90099902     0.00200
C714        C  0.01882114  0.38020536  0.90255821    -0.08200
C715        C  0.04036497  0.38664691  0.92888546     0.62100
H716        H  0.03053928  0.42254263  0.87934367     0.12800
H717        H  0.46469543  0.33062408  0.87779381     0.12900
C718        C  0.45769995  0.36478561  0.82655400     0.62400
F719        F  0.05877671  0.41200127  0.92329700    -0.22800
F720        F  0.05928641  0.36159198  0.93372607    -0.20100
F721        F  0.02367161  0.39253551  0.95491860    -0.19800
F722        F  0.47450214  0.35773366  0.80087416    -0.19800
F723        F  0.43979539  0.39041201  0.82095756    -0.20200
F724        F  0.43841411  0.34016165  0.83241242    -0.22800
C725        C  0.02411849  0.35530718  0.62220329    -0.05700
C726        C  0.50331810  0.35811099  0.59678611     0.00200
C727        C  0.48200092  0.38286309  0.59698573    -0.08300
C728        C  0.48291983  0.40438099  0.62113925    -0.05700
C729        C  0.00280682  0.40138587  0.64589500     0.00200
C730        C  0.02493296  0.37740376  0.64562930    -0.08200
C731        C  0.05000692  0.37546464  0.66941595     0.62100
H732        H  0.04049524  0.33658806  0.62210547     0.12800
H733        H  0.46660217  0.42313952  0.62179952     0.12900
C734        C  0.45781434  0.38612536  0.57242487     0.62400
F735        F  0.07220339  0.35417630  0.66160688    -0.22800
F736        F  0.03771284  0.36655695  0.69701120    -0.20100
F737        F  0.06413114  0.40383293  0.67241343    -0.19800
F738        F  0.44199781  0.35873001  0.56925500    -0.19800
F739        F  0.47157081  0.39374366  0.54510322    -0.20200
F740        F  0.43678865  0.40889810  0.57929610    -0.22800
C741        C  0.47659160  0.12384924  0.64828653    -0.05700
C742        C  0.50082702  0.10269991  0.64937479     0.00200
C743        C  0.02218375  0.10289452  0.62639526    -0.08300
C744        C  0.02040738  0.12530538  0.60331057    -0.05700
C745        C  0.49900007  0.14923018  0.60409671     0.00200
C746        C  0.47549833  0.14756201  0.62632140    -0.08200
C747        C  0.44961529  0.17085276  0.62723371     0.62100
H748        H  0.45857788  0.12176949  0.66508031     0.12800
H749        H  0.03736062  0.12574879  0.58533164     0.12900
C750        C  0.04900351  0.08083224  0.62706120     0.62400
F751        F  0.42715977  0.16246459  0.64786864    -0.22800
F752        F  0.43613355  0.17349190  0.59891586    -0.20100
F753        F  0.46100568  0.19918474  0.63591311    -0.19800
F754        F  0.03929241  0.05217778  0.61781376    -0.19800
F755        F  0.06095184  0.07877880  0.65611131    -0.20200
F756        F  0.07228417  0.09041217  0.60798483    -0.22800
O757        O  0.41469872  0.50250354  0.20008016    -0.75200
O758        O  0.45215958  0.50272379  0.16421581    -0.54100
C759        C  0.42383236  0.50348258  0.17228925     0.78500
O760        O  0.49794895  0.58504363  0.30406348    -0.59800
O761        O  0.49826351  0.54647385  0.33947280    -0.52800
C762        C  0.49802161  0.57515177  0.33178164     0.70600
O763        O  0.49819190  0.58742292  0.20047421    -0.74400
O764        O  0.99991915  0.54825064  0.16453230    -0.54900
C765        C  0.49965040  0.57803193  0.17266554     0.76600
O766        O  0.41484853  0.49503908  0.30189010    -0.59500
O767        O  0.45162311  0.99641314  0.33780391    -0.52600
C768        C  0.42367586  0.49421268  0.32972490     0.73100
Zr769      Zr  0.43664386  0.49866623  0.25102280     2.54700
O770        O  0.39683266  0.53759450  0.25520103    -0.80100
O771        O  0.39883661  0.95562759  0.24706432    -0.93500
Zr772      Zr  0.49943123  0.56480422  0.25189989     2.64700
O773        O  0.46111803  0.60550117  0.25167446    -0.98400
O774        O  0.03592383  0.60587677  0.24851946    -0.80500
O775        O  0.46734893  0.53280414  0.22193560    -0.83900
O776        O  0.46745428  0.53166551  0.28103441    -2.18600
O777        O  0.99685088  0.91134301  0.30020790    -0.67200
O778        O  0.50015895  0.94937961  0.33651174    -0.51800
C779        C  0.99744932  0.92057262  0.32802623     0.71500
O780        O  0.08290413  0.99915802  0.19834311    -0.60100
O781        O  0.04794503  0.50061563  0.16472080    -0.52100
C782        C  0.07341286  0.99943128  0.17047607     0.73300
O783        O  0.08343760  0.00205924  0.30218036    -0.71500
O784        O  0.04633077  0.99921734  0.33821121    -0.50200
C785        C  0.07470932  0.00097091  0.33019789     0.74700
O786        O  0.00390269  0.91318949  0.19797284    -0.66900
O787        O  0.99880512  0.95183670  0.16298678    -0.54100
C788        C  0.00223495  0.92324728  0.17041645     0.73100
Zr789      Zr  0.00083688  0.93439096  0.24943361     2.77500
O790        O  0.04548852  0.90091349  0.25112986    -0.97600
O791        O  0.46099898  0.89434348  0.24460023    -0.78400
Zr792      Zr  0.06207459  0.00169803  0.25034425     2.70100
O793        O  0.10497569  0.96602831  0.25214204    -0.79700
O794        O  0.09829613  0.54232260  0.24523378    -0.98800
Zr795      Zr  0.99984719  0.49954452  0.19223182     2.21500
Zr796      Zr  0.49975817  0.99822743  0.30924884     2.11100
O797        O  0.03195503  0.96701395  0.27959209    -2.47500
O798        O  0.03166188  0.96831667  0.22028605    -0.79500
O799        O  0.46759091  0.96539874  0.27959791    -0.71700
O800        O  0.03202604  0.53183722  0.22213572    -2.32600
O801        O  0.46679790  0.96593574  0.22004209    -2.28800
O802        O  0.03230487  0.53124956  0.28123106    -0.73400
H803        H  0.45445786  0.54371033  0.29416536     0.78600
H804        H  0.04457244  0.54460358  0.20929795     0.79600
H805        H  0.04494493  0.95464202  0.29252591     0.81900
H806        H  0.45431094  0.95340031  0.20662097     0.79500
H807        H  0.05520836  0.59729520  0.25667800     0.42500
H808        H  0.09434644  0.55543561  0.26316316     0.41500
H809        H  0.09985631  0.95139290  0.26870294     0.41200
H810        H  0.06155939  0.91258765  0.24017748     0.39100
H811        H  0.44187917  0.90453488  0.25119378     0.42200
H812        H  0.40379563  0.94497566  0.22781328     0.37000
H813        H  0.40781548  0.55746707  0.25346833     0.43100
H814        H  0.44642601  0.59953696  0.26777521     0.39500
H815        H  0.05217759  0.90100698  0.27262190     0.44500
H816        H  0.37899442  0.96579735  0.24301810     0.43200
H817        H  0.47183862  0.62373846  0.25995615     0.43300
H818        H  0.11895063  0.53369031  0.24859383     0.43700
O819        O  0.49880707  0.70022286  0.08704915    -0.75200
O820        O  0.00081935  0.66228715  0.05054484    -0.54100
C821        C  0.49846230  0.67193084  0.07831624     0.78500
O822        O  0.41633335  0.80385303  0.00044862    -0.59800
O823        O  0.45482279  0.83921798  0.99813014    -0.52800
C824        C  0.42643364  0.83181375  0.99899473     0.70600
O825        O  0.41411552  0.69835868  0.00374424    -0.74400
O826        O  0.45173246  0.66214242  0.00315359    -0.54900
C827        C  0.42356005  0.67010965  0.00362062     0.76600
O828        O  0.50390095  0.80409086  0.08372615    -0.59500
O829        O  0.50095757  0.83928104  0.04516365    -0.52600
C830        C  0.50224477  0.83193072  0.07351769     0.73100
Zr831      Zr  0.50279196  0.75135439  0.06389831     2.54700
O832        O  0.46677843  0.75419944  0.10604371    -0.80100
O833        O  0.05030914  0.74767544  0.09673460    -0.93500
Zr834      Zr  0.43569764  0.75074228  0.00333381     2.64700
O835        O  0.40250194  0.75323521  0.04770675    -0.98400
O836        O  0.39542871  0.74811307  0.46406826    -0.80500
O837        O  0.46841381  0.72097972  0.03483656    -0.83900
O838        O  0.46930694  0.78092816  0.03317320    -2.18600
O839        O  0.08934849  0.79743156  0.49756852    -0.67200
O840        O  0.05254526  0.83522226  0.99886761    -0.51800
C841        C  0.08086642  0.82573639  0.49692663     0.71500
O842        O  0.00002416  0.69580212  0.41673586    -0.60100
O843        O  0.99857751  0.66049669  0.45536706    -0.52100
C844        C  0.99938665  0.66790440  0.42692751     0.73300
O845        O  0.99742034  0.80024534  0.41478267    -0.71500
O846        O  0.50028128  0.83626004  0.45015457    -0.50200
C847        C  0.00010950  0.82841395  0.42378621     0.74700
O848        O  0.08706038  0.69592216  0.99790353    -0.66900
O849        O  0.04880247  0.66032427  0.00063300    -0.54100
C850        C  0.07495184  0.66680801  0.49721347     0.73100
Zr851      Zr  0.06574711  0.74762438  0.99698944     2.77500
O852        O  0.09565719  0.74441624  0.45052591    -0.97600
O853        O  0.10930875  0.74775516  0.03133305    -0.78400
Zr854      Zr  0.99836161  0.74823841  0.43704720     2.70100
O855        O  0.03684773  0.74928753  0.39704546    -0.79700
O856        O  0.45297686  0.74428208  0.40368667    -0.98800
Zr857      Zr  0.00138018  0.68965622  0.00183920     2.21500
Zr858      Zr  0.50113121  0.80891706  0.99868208     2.11100
O859        O  0.03335802  0.77777134  0.46591856    -2.47500
O860        O  0.03114582  0.71752794  0.46762086    -0.79500
O861        O  0.03675444  0.77903764  0.03056139    -0.71700
O862        O  0.46615027  0.71895475  0.47048737    -2.32600
O863        O  0.03569497  0.71914632  0.03209871    -2.28800
O864        O  0.46671268  0.77925613  0.46809648    -0.73400
H865        H  0.45738856  0.79473794  0.04574261     0.78600
H866        H  0.45313786  0.70545740  0.45867494     0.79600
H867        H  0.04549678  0.79050935  0.45264780     0.81900
H868        H  0.04850114  0.70595874  0.04431316     0.79500
H869        H  0.37616095  0.74919833  0.47583525     0.42500
H870        H  0.44098120  0.76305559  0.40825316     0.41500
H871        H  0.05137392  0.73271401  0.40261254     0.41200
H872        H  0.08922949  0.76226789  0.43806867     0.39100
H873        H  0.10133986  0.75713882  0.05024198     0.42200
H874        H  0.04203770  0.74473058  0.11750385     0.37000
H875        H  0.45575626  0.77392715  0.10325708     0.43100
H876        H  0.38202258  0.74750724  0.04000966     0.39500
H877        H  0.11674595  0.74939009  0.45690135     0.44500
H878        H  0.05867339  0.76887854  0.09674000     0.43200
H879        H  0.40880269  0.73551636  0.06048103     0.43300
H880        H  0.46116655  0.74783211  0.38298129     0.43700
O881        O  0.30075711  0.58534618  0.99820790    -0.75200
O882        O  0.33722326  0.54794198  0.99924032    -0.54100
C883        C  0.32873629  0.57638350  0.99845467     0.78500
O884        O  0.19942169  0.00219512  0.08722030    -0.59800
O885        O  0.16444667  0.50021862  0.05077933    -0.52800
C886        C  0.17279526  0.50156378  0.07891467     0.70600
O887        O  0.30332834  0.00355051  0.08506667    -0.74400
O888        O  0.33813072  0.00401118  0.04659726    -0.54900
C889        C  0.33183280  0.50108239  0.07607474     0.76600
O890        O  0.19785957  0.58380477  0.99921778    -0.59500
O891        O  0.16301501  0.54483514  0.00121447    -0.52600
C892        C  0.17024909  0.57343541  0.00035413     0.73100
Zr893      Zr  0.24980885  0.56297056  0.99786827     2.54700
O894        O  0.25186129  0.60587407  0.03334668    -0.80100
O895        O  0.24568214  0.59244171  0.44875029    -0.93500
Zr896      Zr  0.25100390  0.00305039  0.06488943     2.64700
O897        O  0.25679911  0.54870949  0.09526107    -0.98400
O898        O  0.25231093  0.96921666  0.10914582    -0.80500
O899        O  0.28077461  0.53326439  0.03120465    -0.83900
O900        O  0.22131203  0.53269762  0.03267575    -2.18600
O901        O  0.19669306  0.49419268  0.41831180    -0.67200
O902        O  0.16163133  0.49511450  0.45654572    -0.51800
C903        C  0.16819386  0.99822005  0.42727479     0.71500
O904        O  0.30327032  0.91445639  0.00393188    -0.60100
O905        O  0.33830815  0.95317603  0.00092705    -0.52100
C906        C  0.33037379  0.92503738  0.49994161     0.73300
O907        O  0.20090825  0.91163435  0.00413980    -0.71500
O908        O  0.16431630  0.94897477  0.00277381    -0.50200
C909        C  0.17247919  0.92155598  0.50298038     0.74700
O910        O  0.30162713  0.49266142  0.41566063    -0.66900
O911        O  0.33682054  0.99886588  0.45321092    -0.54100
C912        C  0.32926471  0.99841049  0.42507637     0.73100
Zr913      Zr  0.24964916  0.49276080  0.43783809     2.77500
O914        O  0.24899056  0.95695541  0.39967405    -0.97600
O915        O  0.24969363  0.52641316  0.39343547    -0.78400
Zr916      Zr  0.25155104  0.93483258  0.00529216     2.70100
O917        O  0.25044730  0.89081434  0.47100913    -0.79700
O918        O  0.25075356  0.90280695  0.05096528    -0.98800
Zr919      Zr  0.30878652  0.00075820  0.99988652     2.21500
Zr920      Zr  0.19225250  0.49790740  0.00250091     2.11100
O921        O  0.22060857  0.96561238  0.47038758    -2.47500
O922        O  0.27930402  0.96670668  0.46940595    -0.79500
O923        O  0.21958092  0.52746200  0.46699977    -0.71700
O924        O  0.28110498  0.96919023  0.03492929    -2.32600
O925        O  0.27896676  0.52893406  0.46597943    -2.28800
O926        O  0.22143128  0.96737216  0.03635511    -0.73400
H927        H  0.20822520  0.54569869  0.04472667     0.78600
H928        H  0.29481770  0.95759706  0.04769346     0.79600
H929        H  0.20754433  0.95232848  0.45844449     0.81900
H930        H  0.29175903  0.54074464  0.45245191     0.79500
H931        H  0.25960377  0.98246557  0.12593608     0.42500
H932        H  0.26154924  0.91504019  0.06657753     0.41500
H933        H  0.26128601  0.89760687  0.45239097     0.41200
H934        H  0.26879462  0.94632068  0.40264588     0.39100
H935        H  0.23579669  0.54351999  0.39895298     0.42200
H936        H  0.26639668  0.59133643  0.43981036     0.37000
H937        H  0.23451869  0.60238703  0.04740790     0.43100
H938        H  0.23928195  0.56173283  0.08912573     0.39500
H939        H  0.23357625  0.94205806  0.40718184     0.44500
H940        H  0.24343130  0.61410001  0.45538040     0.43200
H941        H  0.25209696  0.54211565  0.11630465     0.43300
H942        H  0.22914961  0.90284541  0.05771194     0.43700
C943        C  0.37691691  0.85266699  0.51689067    -0.05700
C944        C  0.40337013  0.85696529  0.99992342     0.00200
C945        C  0.40471569  0.88390352  0.98146958    -0.08300
C946        C  0.38085761  0.90564630  0.98363703    -0.05700
C947        C  0.35493511  0.90133483  0.49999483     0.00200
C948        C  0.35337086  0.87462994  0.51867347    -0.08200
C949        C  0.32734501  0.86945425  0.54103503     0.62100
H950        H  0.37579668  0.83212698  0.53090814     0.12800
H951        H  0.38125381  0.92613858  0.96951392     0.12900
C952        C  0.43035164  0.88930872  0.95872609     0.62400
F953        F  0.33340409  0.84543430  0.56090349    -0.22800
F954        F  0.30091835  0.86224715  0.52539096    -0.20100
F955        F  0.32320108  0.89423949  0.06147319    -0.19800
F956        F  0.43240176  0.86324260  0.43774326    -0.19800
F957        F  0.45758004  0.89410967  0.97390798    -0.20200
F958        F  0.42493842  0.91489462  0.94059520    -0.22800
C959        C  0.37386300  0.65071580  0.48396327    -0.05700
C960        C  0.40017106  0.64517897  0.00260819     0.00200
C961        C  0.40461705  0.61513685  0.01507466    -0.08300
C962        C  0.38058058  0.59368249  0.01324762    -0.05700
C963        C  0.35291507  0.60054266  0.99859147     0.00200
C964        C  0.35031321  0.62887736  0.48077677    -0.08200
C965        C  0.32453859  0.63538815  0.45854347     0.62100
H966        H  0.37264773  0.67224279  0.47149079     0.12800
H967        H  0.38328459  0.57106354  0.02335023     0.12900
C968        C  0.43418784  0.60529140  0.03049266     0.62400
F969        F  0.32643315  0.66451352  0.94814423    -0.22800
F970        F  0.29626202  0.64181724  0.98254328    -0.20100
F971        F  0.32128526  0.61070963  0.43899281    -0.19800
F972        F  0.43166244  0.57660483  0.04416941    -0.19800
F973        F  0.43334134  0.63374712  0.55917117    -0.20200
F974        F  0.45741924  0.60352904  0.00921613    -0.22800
C975        C  0.15366593  0.87221560  0.48261904    -0.05700
C976        C  0.14880544  0.89730709  0.50202300     0.00200
C977        C  0.12288277  0.89792387  0.02156137    -0.08300
C978        C  0.10092101  0.87455044  0.01875708    -0.05700
C979        C  0.10505412  0.84962797  0.49766934     0.00200
C980        C  0.13258445  0.84787790  0.48052662    -0.08200
C981        C  0.14012027  0.82063865  0.46029838     0.62100
H982        H  0.17441852  0.87175716  0.46918396     0.12800
H983        H  0.08052995  0.87513828  0.03274204     0.12900
C984        C  0.11795345  0.92354569  0.04438243     0.62400
F985        F  0.16649830  0.82544419  0.44350769    -0.22800
F986        F  0.11647268  0.81545661  0.44013794    -0.20100
F987        F  0.14490802  0.79596180  0.97467222    -0.19800
F988        F  0.10605784  0.94907185  0.52849937    -0.19800
F989        F  0.14433253  0.92859002  0.06101511    -0.20200
F990        F  0.09483929  0.91647776  0.06474160    -0.22800
C991        C  0.09411125  0.61564065  0.51354758    -0.05700
C992        C  0.09775221  0.64160764  0.49484510     0.00200
C993        C  0.12581438  0.64423891  0.97760698    -0.08300
C994        C  0.14800011  0.62100774  0.97953227    -0.05700
C995        C  0.14513463  0.59624435  0.99982449     0.00200
C996        C  0.11897306  0.59421019  0.01889741    -0.08200
C997        C  0.11473765  0.56798316  0.04154091     0.62100
H998        H  0.07415715  0.61450487  0.52809668     0.12800
H999        H  0.16798507  0.62204387  0.96498973     0.12900
C1000       C  0.12716269  0.66906039  0.45186587     0.62400
F1001       F  0.08966165  0.57259705  0.06015258    -0.22800
F1002       F  0.11021790  0.54055049  0.02628216    -0.20100
F1003       F  0.13572409  0.56324169  0.55624721    -0.19800
F1004       F  0.14095491  0.69577140  0.96827427    -0.19800
F1005       F  0.09957246  0.67567652  0.43789491    -0.20200
F1006       F  0.14772449  0.66114879  0.42925619    -0.22800
C1007       C  0.40654612  0.50401194  0.38287664    -0.05700
C1008       C  0.39950054  0.49227155  0.35399149     0.00200
C1009       C  0.36982709  0.47949599  0.34925348    -0.08300
C1010       C  0.34805727  0.98302622  0.37398670    -0.05700
C1011       C  0.35442773  0.99739712  0.40181000     0.00200
C1012       C  0.38415565  0.01018518  0.40628954    -0.08200
C1013       C  0.39325766  0.02615483  0.43570568     0.62100
H1014       H  0.42915782  0.51345866  0.38636983     0.12800
H1015       H  0.32559917  0.97306165  0.37086075     0.12900
C1016       C  0.36057939  0.46426901  0.31949663     0.62400
F1017       F  0.42192334  0.03950258  0.43376259    -0.22800
F1018       F  0.39416644  0.00500724  0.45928980    -0.20100
F1019       F  0.37680634  0.54224393  0.44515615    -0.19800
F1020       F  0.38305202  0.94310707  0.31374111    -0.19800
F1021       F  0.35791993  0.48626209  0.29682863    -0.20200
F1022       F  0.33268910  0.44935423  0.32176427    -0.22800
C1023       C  0.15067955  0.00993955  0.37452112    -0.05700
C1024       C  0.14293134  0.99911915  0.40370980     0.00200
C1025       C  0.11205080  0.98971645  0.40884003    -0.08300
C1026       C  0.09095985  0.99062326  0.38431046    -0.05700
C1027       C  0.09893732  0.00115054  0.35493168     0.00200
C1028       C  0.12956912  0.01158279  0.35030804    -0.08200
C1029       C  0.14045870  0.02526761  0.32032444     0.62100
H1030       H  0.17390436  0.01756986  0.37069240     0.12800
H1031       H  0.06938195  0.47786397  0.38719603     0.12900
C1032       C  0.10226643  0.47187930  0.43904736     0.62400
F1033       F  0.16961970  0.03748644  0.32235342    -0.22800
F1034       F  0.11803683  0.55114805  0.31594450    -0.20100
F1035       F  0.14115158  0.00268890  0.29822451    -0.19800
F1036       F  0.10168129  0.49481974  0.46080329    -0.19800
F1037       F  0.11868575  0.95426386  0.44978454    -0.20200
F1038       F  0.07089055  0.96865579  0.43899913    -0.22800
C1039       C  0.12650553  0.01076871  0.15364862    -0.05700
C1040       C  0.09721436  0.00024580  0.14566450     0.00200
C1041       C  0.09431988  0.49123329  0.11652528    -0.08300
C1042       C  0.11850391  0.49300535  0.09526519    -0.05700
C1043       C  0.14825499  0.50245667  0.10314563     0.00200
C1044       C  0.15084091  0.01274934  0.13270407    -0.08200
C1045       C  0.18050847  0.02737198  0.14334323     0.62100
H1046       H  0.13029126  0.01798038  0.17686270     0.12800
H1047       H  0.11420965  0.48676462  0.07199421     0.12900
C1048       C  0.06343082  0.47905207  0.10599054     0.62400
F1049       F  0.18217036  0.53784046  0.17310103    -0.22800
F1050       F  0.19256354  0.54933453  0.12473614    -0.20100
F1051       F  0.20336349  0.00544063  0.14478248    -0.19800
F1052       F  0.04149341  0.50184546  0.10781844    -0.19800
F1053       F  0.05290177  0.95418822  0.12081248    -0.20200
F1054       F  0.06223636  0.97063058  0.07353288    -0.22800
C1055       C  0.40713235  0.49010173  0.11995640    -0.05700
C1056       C  0.40015982  0.50445015  0.14774050     0.00200
C1057       C  0.37116167  0.51894172  0.15109940    -0.08300
C1058       C  0.35001693  0.51715234  0.12703733    -0.05700
C1059       C  0.35671246  0.50226085  0.09945713     0.00200
C1060       C  0.38620748  0.48896384  0.09559052    -0.08200
C1061       C  0.39580819  0.47313247  0.06631886     0.62100
H1062       H  0.42931058  0.47932115  0.11755011     0.12800
H1063       H  0.32777957  0.52777081  0.12960004     0.12900
C1064       C  0.36246127  0.53713516  0.17934332     0.62400
F1065       F  0.42456956  0.46005689  0.06857580    -0.22800
F1066       F  0.39684505  0.49437900  0.04284656    -0.20100
F1067       F  0.37541524  0.95468390  0.05625455    -0.19800
F1068       F  0.38493392  0.55861290  0.18567512    -0.19800
F1069       F  0.35712928  0.02185799  0.20186921    -0.20200
F1070       F  0.33737500  0.05920393  0.17279384    -0.22800
C1071       C  0.47873968  0.59471096  0.38171055    -0.05700
C1072       C  0.49839693  0.59853388  0.35660153     0.00200
C1073       C  0.02517835  0.62246296  0.35776539    -0.08300
C1074       C  0.02334146  0.64412601  0.38156953    -0.05700
C1075       C  0.00034684  0.64282140  0.40380971     0.00200
C1076       C  0.47805454  0.61608484  0.40594577    -0.08200
C1077       C  0.45535681  0.61168890  0.43176455     0.62100
H1078       H  0.46360265  0.57495237  0.38201620     0.12800
H1079       H  0.03979993  0.66273894  0.38279254     0.12900
C1080       C  0.05063967  0.62559316  0.33449163     0.62400
F1081       F  0.43445169  0.58869220  0.42545298    -0.22800
F1082       F  0.43911893  0.63859103  0.43657785    -0.20100
F1083       F  0.47079552  0.60368665  0.45804725    -0.19800
F1084       F  0.03868642  0.63638617  0.30741173    -0.19800
F1085       F  0.06458156  0.59740503  0.32976179    -0.20200
F1086       F  0.07293396  0.64610820  0.34394664    -0.22800
C1087       C  0.01982716  0.89857766  0.37485674    -0.05700
C1088       C  0.99710633  0.89688062  0.35243849     0.00200
C1089       C  0.47350505  0.87476654  0.35432013    -0.08300
C1090       C  0.47522181  0.85216378  0.37730864    -0.05700
C1091       C  0.99952616  0.85297715  0.40019588     0.00200
C1092       C  0.02149050  0.87707267  0.39884782    -0.08200
C1093       C  0.04699237  0.87991225  0.42210487     0.62100
H1094       H  0.03651177  0.91696892  0.37326640     0.12800
H1095       H  0.45755912  0.83476485  0.37923091     0.12900
C1096       C  0.44594227  0.87565819  0.33340917     0.62400
F1097       F  0.06818619  0.90213515  0.41384774    -0.22800
F1098       F  0.06226259  0.85215017  0.42487880    -0.20100
F1099       F  0.03488267  0.88814834  0.44995847    -0.19800
F1100       F  0.45469170  0.86875088  0.30404376    -0.19800
F1101       F  0.43297766  0.90472367  0.33406310    -0.20200
F1102       F  0.42380029  0.85459744  0.34208822    -0.22800
C1103       C  0.02698484  0.85614500  0.11976942    -0.05700
C1104       C  0.50208382  0.85698236  0.09647349     0.00200
C1105       C  0.47764895  0.87829460  0.09935757    -0.08300
C1106       C  0.47837306  0.89983728  0.12337490    -0.05700
C1107       C  0.00391612  0.90013116  0.14546003     0.00200
C1108       C  0.02763561  0.87786547  0.14353032    -0.08200
C1109       C  0.05380042  0.87698490  0.16617334     0.62100
H1110       H  0.04456242  0.83861804  0.11838732     0.12800
H1111       H  0.45989518  0.91622310  0.12605847     0.12900
C1112       C  0.45058498  0.87776169  0.07772276     0.62400
F1113       F  0.07761687  0.85868354  0.15599728    -0.22800
F1114       F  0.04353201  0.86507515  0.19351384    -0.20100
F1115       F  0.06526757  0.90632568  0.17071460    -0.19800
F1116       F  0.43786927  0.84857074  0.07704205    -0.19800
F1117       F  0.46014880  0.88583581  0.04882152    -0.20200
F1118       F  0.42795662  0.89823498  0.08640976    -0.22800
C1119       C  0.47547372  0.62293468  0.14693426    -0.05700
C1120       C  0.49977205  0.60182718  0.14819732     0.00200
C1121       C  0.02603047  0.60596896  0.13002299    -0.08300
C1122       C  0.02459515  0.62849158  0.10685359    -0.05700
C1123       C  0.49763866  0.64784342  0.10230640     0.00200
C1124       C  0.47407777  0.64615977  0.12443111    -0.08200
C1125       C  0.44771446  0.66890052  0.12453488     0.62100
H1126       H  0.45766358  0.62125689  0.16398447     0.12800
H1127       H  0.04428315  0.63271256  0.09247209     0.12900
C1128       C  0.05567170  0.58887871  0.13592175     0.62400
F1129       F  0.42432895  0.65936568  0.14358129    -0.22800
F1130       F  0.43572631  0.67216863  0.09561182    -0.20100
F1131       F  0.45803420  0.69717282  0.13457222    -0.19800
F1132       F  0.05147293  0.55781964  0.13097659    -0.19800
F1133       F  0.06470638  0.59338784  0.16571220    -0.20200
F1134       F  0.07900727  0.59894068  0.11710274    -0.22800
O1135       O  0.41475737  0.50396494  0.70022260    -0.75200
O1136       O  0.45243498  0.50363520  0.66459924    -0.54100
C1137       C  0.42411822  0.50508066  0.67242872     0.78500
O1138       O  0.49887540  0.58386489  0.80666068    -0.59800
O1139       O  0.50024895  0.54435130  0.84107844    -0.52800
C1140       C  0.49961929  0.57314234  0.83408326     0.70600
O1141       O  0.49663985  0.58778095  0.70309370    -0.74400
O1142       O  0.99861032  0.55086448  0.66610486    -0.54900
C1143       C  0.49810193  0.57872697  0.67515061     0.76600
O1144       O  0.41412460  0.49288100  0.80274161    -0.59500
O1145       O  0.44966536  0.99584666  0.83625696    -0.52600
C1146       C  0.42345372  0.49324005  0.83048323     0.73100
Zr1147     Zr  0.43576076  0.49844596  0.75177603     2.54700
O1148       O  0.39714176  0.53840099  0.75731160    -0.80100
O1149       O  0.39848182  0.95506621  0.74684650    -0.93500
Zr1150     Zr  0.49859184  0.56428249  0.75410899     2.64700
O1151       O  0.45738300  0.60193846  0.75666677    -0.98400
O1152       O  0.03882205  0.60267340  0.75433748    -0.80500
O1153       O  0.46692736  0.53263840  0.72335689    -0.83900
O1154       O  0.46672817  0.53072267  0.78263639    -2.18600
O1155       O  0.99843989  0.91230187  0.79951433    -0.67200
O1156       O  0.49736438  0.94812345  0.83541111    -0.51800
C1157       C  0.99903902  0.92097459  0.82749970     0.71500
O1158       O  0.08473768  0.00041363  0.69853203    -0.60100
O1159       O  0.04660960  0.50158526  0.66409846    -0.52100
C1160       C  0.07500378  0.00141524  0.67082594     0.73300
O1161       O  0.08592925  0.00164118  0.80147913    -0.71500
O1162       O  0.04846441  0.99956098  0.83734581    -0.50200
C1163       C  0.07689631  0.00101708  0.82940212     0.74700
O1164       O  0.00402838  0.91569205  0.69662059    -0.66900
O1165       O  0.99954136  0.95441831  0.66173937    -0.54100
C1166       C  0.00280224  0.92582617  0.66902229     0.73100
Zr1167     Zr  0.00059747  0.93562578  0.74881756     2.77500
O1168       O  0.04386419  0.90037259  0.75084381    -0.97600
O1169       O  0.45987580  0.89473648  0.74343729    -0.78400
Zr1170     Zr  0.06356648  0.00101234  0.75023163     2.70100
O1171       O  0.10321520  0.96163588  0.75221389    -0.79700
O1172       O  0.09605587  0.54647964  0.74552829    -0.98800
Zr1173     Zr  0.99890872  0.50125169  0.69256059     2.21500
Zr1174     Zr  0.49831904  0.99725400  0.80896089     2.11100
O1175       O  0.03242085  0.96723963  0.77929226    -2.47500
O1176       O  0.03249466  0.96856288  0.71981700    -0.79500
O1177       O  0.46646416  0.96489442  0.77866494    -0.71700
O1178       O  0.03070693  0.53414668  0.72218481    -2.32600
O1179       O  0.46653098  0.96646311  0.71912026    -2.28800
O1180       O  0.03137876  0.53256964  0.78159357    -0.73400
H1181       H  0.45395029  0.54249674  0.79612468     0.78600
H1182       H  0.04288228  0.54724580  0.70931435     0.79600
H1183       H  0.04520626  0.95453776  0.79209441     0.81900
H1184       H  0.45418102  0.95418059  0.70535004     0.79500
H1185       H  0.02816600  0.62279267  0.75394859     0.42500
H1186       H  0.09006627  0.56008707  0.76253451     0.41500
H1187       H  0.10332292  0.95225833  0.73172294     0.41200
H1188       H  0.05908803  0.90957977  0.73684231     0.39100
H1189       H  0.44504634  0.90320711  0.72862255     0.42200
H1190       H  0.40783680  0.93864532  0.75944258     0.37000
H1191       H  0.40689692  0.55720451  0.74898113     0.43100
H1192       H  0.44783570  0.59877042  0.77686387     0.39500
H1193       H  0.05288165  0.90312815  0.77128767     0.44500
H1194       H  0.40002463  0.94730538  0.72575926     0.43200
H1195       H  0.46786702  0.62208483  0.75826547     0.43300
H1196       H  0.11676459  0.53905105  0.75083269     0.43700
O1197       O  0.49776306  0.70140202  0.58839195    -0.75200
O1198       O  0.99889892  0.66401008  0.55226009    -0.54100
C1199       C  0.49776149  0.67288203  0.58037000     0.78500
O1200       O  0.41540173  0.80324286  0.49890143    -0.59800
O1201       O  0.45386396  0.83870070  0.49689652    -0.52800
C1202       C  0.42541154  0.83124803  0.49733535     0.70600
O1203       O  0.41383199  0.69826415  0.50314661    -0.74400
O1204       O  0.45128671  0.66177016  0.50432735    -0.54900
C1205       C  0.42310717  0.66999819  0.50382863     0.76600
O1206       O  0.50216675  0.80500673  0.58292165    -0.59500
O1207       O  0.49971574  0.84006308  0.54423765    -0.52600
C1208       C  0.50061796  0.83281677  0.57261361     0.73100
Zr1209     Zr  0.50163325  0.75200983  0.56399879     2.54700
O1210       O  0.46403529  0.75813127  0.60430993    -0.80100
O1211       O  0.04944639  0.75009534  0.59859786    -0.93500
Zr1212     Zr  0.43565657  0.75045301  0.50220034     2.64700
O1213       O  0.39975716  0.75280143  0.54444789    -0.98400
O1214       O  0.39192806  0.75083123  0.96916175    -0.80500
O1215       O  0.46767810  0.72114983  0.53495741    -0.83900
O1216       O  0.46869598  0.78104361  0.53227583    -2.18600
O1217       O  0.08931610  0.79803617  0.99672906    -0.67200
O1218       O  0.05281794  0.83486671  0.49695330    -0.51800
C1219       C  0.08062838  0.82624135  0.99762290     0.71500
O1220       O  0.99792475  0.69630037  0.91621901    -0.60100
O1221       O  0.99976139  0.66054030  0.95447547    -0.52100
C1222       C  0.99823558  0.66835007  0.92619541     0.73300
O1223       O  0.99826936  0.80012819  0.91422284    -0.71500
O1224       O  0.49969561  0.83631250  0.95058104    -0.50200
C1225       C  0.00029827  0.82827100  0.92321649     0.74700
O1226       O  0.08514751  0.69457759  0.49643541    -0.66900
O1227       O  0.04658297  0.65949369  0.50024082    -0.54100
C1228       C  0.07718772  0.66802948  0.99872419     0.73100
Zr1229     Zr  0.06543762  0.74697849  0.49700464     2.77500
O1230       O  0.09573732  0.74419172  0.95040480    -0.97600
O1231       O  0.11095039  0.74389953  0.52867715    -0.78400
Zr1232     Zr  0.99919082  0.74857167  0.93676274     2.70100
O1233       O  0.03757676  0.74825994  0.89655181    -0.79700
O1234       O  0.45098483  0.74880324  0.90414067    -0.98800
Zr1235     Zr  0.00005269  0.68992354  0.50278466     2.21500
Zr1236     Zr  0.50096475  0.80908918  0.49827573     2.11100
O1237       O  0.03360908  0.77843202  0.96602614    -2.47500
O1238       O  0.03231669  0.71779246  0.96696278    -0.79500
O1239       O  0.03733070  0.77931714  0.53055067    -0.71700
O1240       O  0.46518186  0.71944853  0.97025776    -2.32600
O1241       O  0.03514079  0.71928427  0.53263891    -2.28800
O1242       O  0.46627879  0.77946993  0.96881135    -0.73400
H1243       H  0.45647716  0.79486216  0.54451604     0.78600
H1244       H  0.45189705  0.70612329  0.95855184     0.79600
H1245       H  0.04582313  0.79145573  0.95283471     0.81900
H1246       H  0.04781674  0.70583813  0.54478318     0.79500
H1247       H  0.37433604  0.75645937  0.98219437     0.42500
H1248       H  0.44332531  0.77025163  0.90517462     0.41500
H1249       H  0.04678142  0.76911197  0.89678265     0.41200
H1250       H  0.08966351  0.76219661  0.93796125     0.39100
H1251       H  0.10322163  0.74550120  0.54975911     0.42200
H1252       H  0.06370428  0.73517323  0.58925584     0.37000
H1253       H  0.44543532  0.74792482  0.59643287     0.43100
H1254       H  0.37934088  0.75219391  0.53478250     0.39500
H1255       H  0.11696360  0.74864346  0.95666922     0.44500
H1256       H  0.04189168  0.73952054  0.61711943     0.43200
H1257       H  0.40173460  0.73258067  0.55476629     0.43300
H1258       H  0.45909003  0.74676285  0.88322290     0.43700
O1259       O  0.29974849  0.58572333  0.49650120    -0.75200
O1260       O  0.33631667  0.54837417  0.49792931    -0.54100
C1261       C  0.32779959  0.57678444  0.49693126     0.78500
O1262       O  0.20020818  0.00443460  0.58797910    -0.59800
O1263       O  0.16469141  0.50131115  0.55146051    -0.52800
C1264       C  0.17271247  0.50410274  0.57957150     0.70600
O1265       O  0.30367798  0.00375154  0.58463628    -0.74400
O1266       O  0.33829866  0.00359239  0.54609766    -0.54900
C1267       C  0.33228063  0.50508386  0.57554939     0.76600
O1268       O  0.19622477  0.58325501  0.49646133    -0.59500
O1269       O  0.16203149  0.54380117  0.49898277    -0.52600
C1270       C  0.16869369  0.57251260  0.49749191     0.73100
Zr1271     Zr  0.24868899  0.56282570  0.49576224     2.54700
O1272       O  0.24914412  0.60882081  0.52730965    -0.80100
O1273       O  0.24501075  0.59641007  0.95356867    -0.93500
Zr1274     Zr  0.25128388  0.00274446  0.56514571     2.64700
O1275       O  0.25612431  0.54928571  0.59773006    -0.98400
O1276       O  0.25278428  0.96568428  0.60674269    -0.80500
O1277       O  0.27974296  0.53449607  0.53030915    -0.83900
O1278       O  0.22088032  0.53345908  0.53202414    -2.18600
O1279       O  0.19821350  0.49725205  0.91685884    -0.67200
O1280       O  0.16326218  0.49834182  0.95508673    -0.51800
C1281       C  0.16917894  0.99705964  0.92672220     0.71500
O1282       O  0.30263093  0.91531123  0.49977128    -0.60100
O1283       O  0.33810742  0.95366843  0.50028544    -0.52100
C1284       C  0.33087287  0.92448294  0.00274491     0.73300
O1285       O  0.20047036  0.91255408  0.50279600    -0.71500
O1286       O  0.16381852  0.94984888  0.50332641    -0.50200
C1287       C  0.17294313  0.92076631  0.00352915     0.74700
O1288       O  0.30257566  0.49503208  0.91604734    -0.66900
O1289       O  0.33786293  0.99919923  0.95289424    -0.54100
C1290       C  0.32983287  0.99796441  0.92481379     0.73100
Zr1291     Zr  0.25046628  0.49542495  0.93746820     2.77500
O1292       O  0.24934145  0.95161558  0.90246869    -0.97600
O1293       O  0.25049477  0.53214014  0.89550059    -0.78400
Zr1294     Zr  0.25099619  0.93574449  0.50395375     2.70100
O1295       O  0.25304004  0.88959293  0.97278511    -0.79700
O1296       O  0.25147527  0.90273120  0.54884079    -0.98800
Zr1297     Zr  0.30831229  0.00102604  0.50007043     2.21500
Zr1298     Zr  0.19191666  0.49738222  0.50306638     2.11100
O1299       O  0.22113204  0.96366357  0.97080759    -2.47500
O1300       O  0.28006894  0.96518814  0.97018820    -0.79500
O1301       O  0.22047418  0.52904246  0.96777792    -0.71700
O1302       O  0.28079208  0.96893313  0.53459939    -2.32600
O1303       O  0.28004703  0.53015121  0.96690688    -2.28800
O1304       O  0.22131944  0.96782347  0.53600146    -0.73400
H1305       H  0.20772773  0.54682180  0.54361101     0.78600
H1306       H  0.29440834  0.95691802  0.54708125     0.79600
H1307       H  0.20826949  0.95010994  0.95899807     0.81900
H1308       H  0.29289141  0.54238742  0.95379537     0.79500
H1309       H  0.23653855  0.95062529  0.60184688     0.42500
H1310       H  0.23377904  0.90969886  0.56105728     0.41500
H1311       H  0.25507682  0.89805999  0.95195299     0.41200
H1312       H  0.23442550  0.95723712  0.88647143     0.39100
H1313       H  0.24366905  0.55174967  0.90472737     0.42200
H1314       H  0.26407143  0.59333979  0.94188279     0.37000
H1315       H  0.23458080  0.60424971  0.54396422     0.43100
H1316       H  0.23853803  0.56237195  0.59195150     0.39500
H1317       H  0.26938125  0.95227676  0.89201564     0.44500
H1318       H  0.24644986  0.61761633  0.96165461     0.43200
H1319       H  0.25129093  0.54175905  0.61845355     0.43300
H1320       H  0.24525065  0.88223005  0.54120176     0.43700
C1321       C  0.37872361  0.85302871  0.01997272    -0.05700
C1322       C  0.40215202  0.85644029  0.49749867     0.00200
C1323       C  0.40401865  0.88345872  0.47911830    -0.08300
C1324       C  0.38036982  0.90554955  0.48094922    -0.05700
C1325       C  0.35574237  0.90115214  0.00307899     0.00200
C1326       C  0.35477787  0.87447743  0.02190943    -0.08200
C1327       C  0.32878624  0.86831208  0.04411185     0.62100
H1328       H  0.37821823  0.83254032  0.03410178     0.12800
H1329       H  0.38123599  0.92614372  0.46698873     0.12900
C1330       C  0.42993618  0.88851708  0.45665546     0.62400
F1331       F  0.33549568  0.84432026  0.06384444    -0.22800
F1332       F  0.30268731  0.86034507  0.02826217    -0.20100
F1333       F  0.32274041  0.89573171  0.55820179    -0.19800
F1334       F  0.43313545  0.86402630  0.93986442    -0.19800
F1335       F  0.45711327  0.89278778  0.47206808    -0.20200
F1336       F  0.42511868  0.91426509  0.43858448    -0.22800
C1337       C  0.37264392  0.65182717  0.98760354    -0.05700
C1338       C  0.39945395  0.64535932  0.50249279     0.00200
C1339       C  0.40174522  0.61694380  0.51852230    -0.08300
C1340       C  0.37797594  0.59525353  0.51562849    -0.05700
C1341       C  0.35213193  0.60083696  0.49747950     0.00200
C1342       C  0.34929717  0.62986102  0.98449598    -0.08200
C1343       C  0.32193447  0.63768551  0.96467917     0.62100
H1344       H  0.36977255  0.67442957  0.97749346     0.12800
H1345       H  0.37925769  0.57364774  0.52796016     0.12900
C1346       C  0.42849010  0.60959463  0.53936795     0.62400
F1347       F  0.33018199  0.66136055  0.44103920    -0.22800
F1348       F  0.29754409  0.64025011  0.47414886    -0.20100
F1349       F  0.31708162  0.61416588  0.94409931    -0.19800
F1350       F  0.42323323  0.58338439  0.55664664    -0.19800
F1351       F  0.44192783  0.62615918  0.05283551    -0.20200
F1352       F  0.45457667  0.60464680  0.52231994    -0.22800
C1353       C  0.15326947  0.87230976  0.98270932    -0.05700
C1354       C  0.14910701  0.89690160  0.00276307     0.00200
C1355       C  0.12231183  0.89804045  0.52042982    -0.08300
C1356       C  0.10042929  0.87464508  0.51719827    -0.05700
C1357       C  0.10480655  0.85002621  0.99840413     0.00200
C1358       C  0.13168109  0.84857663  0.98021550    -0.08200
C1359       C  0.13805674  0.82232449  0.95834632     0.62100
H1360       H  0.17379199  0.87188253  0.96891547     0.12800
H1361       H  0.07959558  0.87546287  0.53052127     0.12900
C1362       C  0.11678523  0.92319368  0.54348820     0.62400
F1363       F  0.16264768  0.82862208  0.93946266    -0.22800
F1364       F  0.11292365  0.81715578  0.94007651    -0.20100
F1365       F  0.14479297  0.79479440  0.47812547    -0.19800
F1366       F  0.10998771  0.95013493  0.02892703    -0.19800
F1367       F  0.14340212  0.93028690  0.55894903    -0.20200
F1368       F  0.09546503  0.91401621  0.56493959    -0.22800
C1369       C  0.09700110  0.61790315  0.01743809    -0.05700
C1370       C  0.10035371  0.64313524  0.99763575     0.00200
C1371       C  0.12327208  0.64321987  0.47492367    -0.08300
C1372       C  0.14572966  0.62013078  0.47661029    -0.05700
C1373       C  0.14294469  0.59488061  0.49641743     0.00200
C1374       C  0.11615452  0.59200556  0.51465178    -0.08200
C1375       C  0.11129854  0.56514382  0.53641535     0.62100
H1376       H  0.07723751  0.61724649  0.03227612     0.12800
H1377       H  0.16589112  0.62175833  0.46236798     0.12900
C1378       C  0.12997927  0.66963019  0.95412959     0.62400
F1379       F  0.08494287  0.56849726  0.55352489    -0.22800
F1380       F  0.10856692  0.53792508  0.52038955    -0.20100
F1381       F  0.14030808  0.56559579  0.05987760    -0.19800
F1382       F  0.13808106  0.69500936  0.46638261    -0.19800
F1383       F  0.10252936  0.67612533  0.93987947    -0.20200
F1384       F  0.15064139  0.66121506  0.93177420    -0.22800
C1385       C  0.40409702  0.51136942  0.88036016    -0.05700
C1386       C  0.39980263  0.49225542  0.85499747     0.00200
C1387       C  0.37300885  0.47370468  0.85351370    -0.08300
C1388       C  0.34886712  0.97950779  0.87485470    -0.05700
C1389       C  0.35426382  0.99738616  0.90091645     0.00200
C1390       C  0.38195102  0.01454978  0.90275481    -0.08200
C1391       C  0.38929113  0.03519786  0.92962405     0.62100
H1392       H  0.42461887  0.52529293  0.88130666     0.12800
H1393       H  0.32777349  0.96652340  0.87365454     0.12900
C1394       C  0.36718799  0.45142977  0.82758416     0.62400
F1395       F  0.41455523  0.05364503  0.92408312    -0.22800
F1396       F  0.39551899  0.01728588  0.95492645    -0.20100
F1397       F  0.36319426  0.55363716  0.93530500    -0.19800
F1398       F  0.38698399  0.93739648  0.81858201    -0.19800
F1399       F  0.35991781  0.46769516  0.80151861    -0.20200
F1400       F  0.34315264  0.43162103  0.83388982    -0.22800
C1401       C  0.15158999  0.01200859  0.87499305    -0.05700
C1402       C  0.14417793  0.99858886  0.90317941     0.00200
C1403       C  0.11394662  0.98703061  0.90736977    -0.08300
C1404       C  0.09300755  0.98863791  0.88283973    -0.05700
C1405       C  0.10076634  0.00131983  0.85427567     0.00200
C1406       C  0.13072281  0.01385556  0.85063203    -0.08200
C1407       C  0.14114320  0.02975517  0.82157729     0.62100
H1408       H  0.17438350  0.02123930  0.87205698     0.12800
H1409       H  0.06934811  0.48617134  0.88829589     0.12900
C1410       C  0.10215994  0.48364402  0.94023304     0.62400
F1411       F  0.16904454  0.04442401  0.82505283    -0.22800
F1412       F  0.12322851  0.54967531  0.81179031    -0.20100
F1413       F  0.14440475  0.00826121  0.79866344    -0.19800
F1414       F  0.10541793  0.50852348  0.95957084    -0.19800
F1415       F  0.12287738  0.94749446  0.94380847    -0.20200
F1416       F  0.07421132  0.96071086  0.93525261    -0.22800
C1417       C  0.12676115  0.01649103  0.65321936    -0.05700
C1418       C  0.09851447  0.00290582  0.64605168     0.00200
C1419       C  0.09370115  0.49338950  0.61581191    -0.08300
C1420       C  0.11826746  0.49528238  0.59498879    -0.05700
C1421       C  0.14768389  0.50548973  0.60323639     0.00200
C1422       C  0.15119022  0.01801691  0.63237127    -0.08200
C1423       C  0.18044616  0.03400813  0.64223408     0.62100
H1424       H  0.12969757  0.02594793  0.67577105     0.12800
H1425       H  0.11460022  0.48834848  0.57177791     0.12900
C1426       C  0.06324998  0.48057586  0.60471448     0.62400
F1427       F  0.17720379  0.54762546  0.67117211    -0.22800
F1428       F  0.18825299  0.55570954  0.62232310    -0.20100
F1429       F  0.20374686  0.01267531  0.64501006    -0.19800
F1430       F  0.04037170  0.50226571  0.60735798    -0.19800
F1431       F  0.05980685  0.95008957  0.62545608    -0.20200
F1432       F  0.06644118  0.96419502  0.57701936    -0.22800
C1433       C  0.40835954  0.49511138  0.61884213    -0.05700
C1434       C  0.40083113  0.50739558  0.64746911     0.00200
C1435       C  0.37184034  0.52173795  0.65107864    -0.08300
C1436       C  0.35069592  0.52061038  0.62690385    -0.05700
C1437       C  0.35758290  0.50694489  0.59870638     0.00200
C1438       C  0.38766869  0.49511043  0.59418874    -0.08200
C1439       C  0.39822950  0.48200203  0.56392045     0.62100
H1440       H  0.43076900  0.48496393  0.61597351     0.12800
H1441       H  0.32824497  0.53060600  0.63000113     0.12900
C1442       C  0.36319465  0.53905787  0.67982873     0.62400
F1443       F  0.42792671  0.47106377  0.56520525    -0.22800
F1444       F  0.39747913  0.50476016  0.54183507    -0.20100
F1445       F  0.37654300  0.95534451  0.55482957    -0.19800
F1446       F  0.38636952  0.55924466  0.68765599    -0.19800
F1447       F  0.35631722  0.01697151  0.70145448    -0.20200
F1448       F  0.33551590  0.05503364  0.67408717    -0.22800
C1449       C  0.47253130  0.61384769  0.86277311    -0.05700
C1450       C  0.49890367  0.59578074  0.85930602     0.00200
C1451       C  0.02359422  0.59976290  0.87929925    -0.08300
C1452       C  0.02189825  0.62277244  0.90183195    -0.05700
C1453       C  0.99732027  0.64346956  0.90316780     0.00200
C1454       C  0.47036945  0.63654621  0.88552531    -0.08200
C1455       C  0.44057428  0.65376705  0.89029375     0.62100
H1456       H  0.45346048  0.60980833  0.84760248     0.12800
H1457       H  0.04010371  0.62519198  0.91833480     0.12900
C1458       C  0.05121624  0.57865654  0.87812742     0.62400
F1459       F  0.41742098  0.64242418  0.87204619    -0.22800
F1460       F  0.44451309  0.68460172  0.88348487    -0.20100
F1461       F  0.43140832  0.65080111  0.92029198    -0.19800
F1462       F  0.06439886  0.57996140  0.84955161    -0.19800
F1463       F  0.04233530  0.54874728  0.88436701    -0.20200
F1464       F  0.07321279  0.58694271  0.89920105    -0.22800
C1465       C  0.02019892  0.89909554  0.87525906    -0.05700
C1466       C  0.99897761  0.89660910  0.85142911     0.00200
C1467       C  0.47324584  0.87166538  0.85223103    -0.08300
C1468       C  0.47507782  0.85002183  0.87608930    -0.05700
C1469       C  0.00028534  0.85256861  0.89928062     0.00200
C1470       C  0.02184371  0.87697543  0.89874866    -0.08200
C1471       C  0.04760117  0.87867330  0.92178900     0.62100
H1472       H  0.03607635  0.91826153  0.87495714     0.12800
H1473       H  0.45887634  0.83117242  0.87726470     0.12900
C1474       C  0.44757529  0.86914944  0.82920979     0.62400
F1475       F  0.06953882  0.90005020  0.91341593    -0.22800
F1476       F  0.06185713  0.85031692  0.92402655    -0.20100
F1477       F  0.03613483  0.88694168  0.94989205    -0.19800
F1478       F  0.45935392  0.86219916  0.80091515    -0.19800
F1479       F  0.43195464  0.89676715  0.82773205    -0.20200
F1480       F  0.42683200  0.84630602  0.83692851    -0.22800
C1481       C  0.02879726  0.85833561  0.61936810    -0.05700
C1482       C  0.50076544  0.85785598  0.59557197     0.00200
C1483       C  0.47835625  0.88147312  0.59682197    -0.08300
C1484       C  0.47984947  0.90326257  0.62061828    -0.05700
C1485       C  0.00526805  0.90284442  0.64390645     0.00200
C1486       C  0.02878726  0.88029789  0.64297837    -0.08200
C1487       C  0.05382411  0.87920019  0.66685167     0.62100
H1488       H  0.04616343  0.84055407  0.61884518     0.12800
H1489       H  0.46300407  0.92150404  0.62194348     0.12900
C1490       C  0.45206336  0.88267180  0.57427106     0.62400
F1491       F  0.07757762  0.86003867  0.65827177    -0.22800
F1492       F  0.04189718  0.86814673  0.69385043    -0.20100
F1493       F  0.06586065  0.90830605  0.67143861    -0.19800
F1494       F  0.43712579  0.85456693  0.57376385    -0.19800
F1495       F  0.46300055  0.88936362  0.54551057    -0.20200
F1496       F  0.43083193  0.90498563  0.58192811    -0.22800
C1497       C  0.47603970  0.62582923  0.65125687    -0.05700
C1498       C  0.49851157  0.60276365  0.65087543     0.00200
C1499       C  0.02225369  0.60635151  0.62939572    -0.08300
C1500       C  0.02037510  0.62845898  0.60601938    -0.05700
C1501       C  0.49697043  0.64916854  0.60504726     0.00200
C1502       C  0.47511607  0.64941473  0.62904305    -0.08200
C1503       C  0.45095249  0.67441220  0.63146706     0.62100
H1504       H  0.45924613  0.62530395  0.66935709     0.12800
H1505       H  0.03860809  0.63040227  0.58943113     0.12900
C1506       C  0.05123409  0.58758748  0.63291482     0.62400
F1507       F  0.42999942  0.66819405  0.65428750    -0.22800
F1508       F  0.43511058  0.67706840  0.60440176    -0.20100
F1509       F  0.46479258  0.70217714  0.63815664    -0.19800
F1510       F  0.04508968  0.55710534  0.62711010    -0.19800
F1511       F  0.06231165  0.59046590  0.66221590    -0.20200
F1512       F  0.07392560  0.59717932  0.61306758    -0.22800
O1513       O  0.91250076  0.99862807  0.19850338    -0.75200
O1514       O  0.95028026  0.00150055  0.16297897    -0.54100
C1515       C  0.92190355  0.00083465  0.17075636     0.78500
O1516       O  0.00022434  0.08430008  0.30375137    -0.59800
O1517       O  0.99731613  0.04555029  0.33888899    -0.52800
C1518       C  0.99950971  0.07422450  0.33141426     0.70600
O1519       O  0.99525372  0.08670821  0.20062896    -0.74400
O1520       O  0.49927264  0.04804966  0.16343762    -0.54900
C1521       C  0.99720638  0.07743506  0.17284272     0.76600
O1522       O  0.91237725  0.99313173  0.30147467    -0.59500
O1523       O  0.95158933  0.49586140  0.33785450    -0.52600
C1524       C  0.92169299  0.99302784  0.32924608     0.73100
Zr1525     Zr  0.93396727  0.99622482  0.25019136     2.54700
O1526       O  0.89371430  0.03483442  0.25282500    -0.80100
O1527       O  0.89720060  0.45875652  0.24740288    -0.93500
Zr1528     Zr  0.99545223  0.06370058  0.25178934     2.64700
O1529       O  0.95245404  0.09916663  0.25581289    -0.98400
O1530       O  0.53685938  0.10408081  0.24915960    -0.80500
O1531       O  0.96413246  0.03118387  0.22136728    -0.83900
O1532       O  0.96427710  0.02966725  0.28065508    -2.18600
O1533       O  0.49835600  0.41251443  0.30102309    -0.67200
O1534       O  0.99946153  0.44873728  0.33712131    -0.51800
C1535       C  0.49886500  0.42171740  0.32886313     0.71500
O1536       O  0.58582130  0.49903024  0.19962944    -0.60100
O1537       O  0.54569141  0.99985206  0.16194960    -0.52100
C1538       C  0.57610963  0.50014154  0.17191581     0.73300
O1539       O  0.58651227  0.50029053  0.30238430    -0.71500
O1540       O  0.54887964  0.49959075  0.33819869    -0.50200
C1541       C  0.57733216  0.50017953  0.33025328     0.74700
O1542       O  0.50468679  0.41442473  0.19859407    -0.66900
O1543       O  0.50126748  0.45280266  0.16321661    -0.54100
C1544       C  0.50390031  0.42418356  0.17092538     0.73100
Zr1545     Zr  0.50207006  0.43535683  0.25012686     2.77500
O1546       O  0.54612238  0.40107504  0.25167438    -0.97600
O1547       O  0.95796170  0.39683966  0.24644801    -0.78400
Zr1548     Zr  0.56440130  0.50147128  0.25112234     2.70100
O1549       O  0.60756833  0.46608278  0.25189033    -0.79700
O1550       O  0.59934378  0.04162248  0.24456696    -0.98800
Zr1551     Zr  0.49876502  0.99962603  0.19126437     2.21500
Zr1552     Zr  0.99990203  0.49802615  0.31021238     2.11100
O1553       O  0.53356732  0.46746177  0.28037135    -2.47500
O1554       O  0.53352038  0.46858807  0.22094767    -0.79500
O1555       O  0.96746547  0.46600739  0.28022977    -0.71700
O1556       O  0.53112692  0.03219040  0.22069070    -2.32600
O1557       O  0.96718764  0.46640011  0.22080773    -2.28800
O1558       O  0.53184442  0.03155911  0.27982046    -0.73400
H1559       H  0.95135039  0.04134647  0.29407809     0.78600
H1560       H  0.54349550  0.04498747  0.20773257     0.79600
H1561       H  0.54630784  0.45487270  0.29334921     0.81900
H1562       H  0.95464036  0.45398588  0.20734123     0.79500
H1563       H  0.55592647  0.09357181  0.24296382     0.42500
H1564       H  0.59447563  0.05540016  0.26177023     0.41500
H1565       H  0.60067977  0.44863117  0.26473630     0.41200
H1566       H  0.56137690  0.41105822  0.23822637     0.39100
H1567       H  0.94076777  0.40647517  0.25756693     0.42200
H1568       H  0.90369858  0.44568244  0.23015907     0.37000
H1569       H  0.87506436  0.02311038  0.25824061     0.43100
H1570       H  0.94242244  0.09837766  0.23566633     0.39500
H1571       H  0.55468563  0.40329047  0.27236980     0.44500
H1572       H  0.87866046  0.46942988  0.23994043     0.43200
H1573       H  0.93778534  0.08900141  0.26974762     0.43300
H1574       H  0.61950910  0.03264347  0.24956971     0.43700
O1575       O  0.99977821  0.19883514  0.08744229    -0.75200
O1576       O  0.50128982  0.16177459  0.04951134    -0.54100
C1577       C  0.99953794  0.17064945  0.07849963     0.78500
O1578       O  0.91682097  0.30264008  0.00364835    -0.59800
O1579       O  0.95564347  0.33767495  0.00101958    -0.52800
C1580       C  0.92712744  0.33055009  0.00233558     0.70600
O1581       O  0.91552829  0.19783573  0.00364697    -0.74400
O1582       O  0.95293409  0.16148136  0.00206204    -0.54900
C1583       C  0.92471457  0.16951785  0.00272729     0.76600
O1584       O  0.00553700  0.30248103  0.08577390    -0.59500
O1585       O  0.00346734  0.33796328  0.04739219    -0.52600
C1586       C  0.00440020  0.33042105  0.07569663     0.73100
Zr1587     Zr  0.00454012  0.25000916  0.06506429     2.54700
O1588       O  0.96942203  0.25385077  0.10778063    -0.80100
O1589       O  0.55043151  0.24751697  0.09769406    -0.93500
Zr1590     Zr  0.93777168  0.24994040  0.00392257     2.64700
O1591       O  0.90480721  0.24916793  0.04857881    -0.98400
O1592       O  0.89501041  0.25121375  0.46630941    -0.80500
O1593       O  0.97029063  0.21994489  0.03538191    -0.83900
O1594       O  0.97111858  0.27974821  0.03444539    -2.18600
O1595       O  0.58885923  0.29742046  0.49594025    -0.67200
O1596       O  0.55221610  0.33546890  0.99955674    -0.51800
C1597       C  0.58011069  0.32562352  0.49694418     0.71500
O1598       O  0.49695578  0.19564879  0.41611522    -0.60100
O1599       O  0.49741515  0.16013666  0.45463833    -0.52100
C1600       C  0.49677507  0.16768249  0.42619044     0.73300
O1601       O  0.49718560  0.30009189  0.41433679    -0.71500
O1602       O  0.00204029  0.33640227  0.45221555    -0.50200
C1603       C  0.49996383  0.32826248  0.42334859     0.74700
O1604       O  0.58604655  0.19546088  0.99856599    -0.66900
O1605       O  0.54806275  0.15961631  0.99947795    -0.54100
C1606       C  0.57538681  0.16728082  0.49834693     0.73100
Zr1607     Zr  0.56554499  0.24753638  0.99685302     2.77500
O1608       O  0.59631288  0.24486422  0.45181034    -0.97600
O1609       O  0.61045818  0.24732801  0.02950081    -0.78400
Zr1610     Zr  0.49754662  0.24805992  0.43682074     2.70100
O1611       O  0.53732007  0.24773450  0.39809575    -0.79700
O1612       O  0.95836451  0.24533168  0.40025404    -0.98800
Zr1613     Zr  0.50113773  0.18945582  0.00110789     2.21500
Zr1614     Zr  0.00290971  0.30827788  0.00060601     2.11100
O1615       O  0.53213513  0.27781248  0.46596678    -2.47500
O1616       O  0.53075251  0.21749932  0.46726942    -0.79500
O1617       O  0.53718389  0.27875366  0.03113863    -0.71700
O1618       O  0.96720199  0.21910252  0.47015545    -2.32600
O1619       O  0.53560960  0.21873766  0.03170145    -2.28800
O1620       O  0.96860868  0.27893710  0.46910986    -0.73400
H1621       H  0.95918528  0.29340721  0.04722144     0.78600
H1622       H  0.95430985  0.20586399  0.45813608     0.79600
H1623       H  0.54433548  0.29050729  0.45273461     0.81900
H1624       H  0.54845063  0.20545811  0.04370523     0.79500
H1625       H  0.90320420  0.26281352  0.44867547     0.42500
H1626       H  0.94321525  0.23097375  0.40920777     0.41500
H1627       H  0.55124511  0.23087738  0.40433788     0.41200
H1628       H  0.58944277  0.26209084  0.43871576     0.39100
H1629       H  0.60607956  0.26292903  0.04528866     0.42200
H1630       H  0.54693411  0.26364291  0.11318474     0.37000
H1631       H  0.94903036  0.25009478  0.09878912     0.43100
H1632       H  0.90690935  0.26992753  0.05763311     0.39500
H1633       H  0.61693097  0.25095944  0.45869894     0.44500
H1634       H  0.56737638  0.25562998  0.08508729     0.43200
H1635       H  0.88378383  0.24875076  0.04031909     0.43300
H1636       H  0.94837267  0.26576673  0.40135203     0.43700
O1637       O  0.79943691  0.08576354  0.99741895    -0.75200
O1638       O  0.83592754  0.04846886  0.99773448    -0.54100
C1639       C  0.82752841  0.07696407  0.99737559     0.78500
O1640       O  0.70037904  0.50373629  0.08795364    -0.59800
O1641       O  0.66407693  0.99832430  0.04973178    -0.52800
C1642       C  0.67216069  0.00020139  0.07789999     0.70600
O1643       O  0.80420170  0.50350658  0.08624662    -0.74400
O1644       O  0.83879308  0.50368864  0.04756955    -0.54900
C1645       C  0.83114435  0.00205567  0.07371337     0.76600
O1646       O  0.69655112  0.08232905  0.99963095    -0.59500
O1647       O  0.66178615  0.04332534  0.00118953    -0.52600
C1648       C  0.66895148  0.07198128  0.00074072     0.73100
Zr1649     Zr  0.74860705  0.06227977  0.99760190     2.54700
O1650       O  0.74903012  0.10348246  0.03494575    -0.80100
O1651       O  0.74247206  0.09686807  0.45417626    -0.93500
Zr1652     Zr  0.75195067  0.50310330  0.06596556     2.64700
O1653       O  0.75591649  0.04178455  0.10004189    -0.98400
O1654       O  0.75134555  0.46762250  0.10895171    -0.80500
O1655       O  0.77956463  0.03222271  0.03051272    -0.83900
O1656       O  0.72060271  0.03102205  0.03200259    -2.18600
O1657       O  0.69782666  0.99562547  0.41644166    -0.67200
O1658       O  0.66253579  0.99542065  0.45443822    -0.51800
C1659       C  0.66984586  0.49736974  0.42680482     0.71500
O1660       O  0.80467037  0.41484798  0.00624916    -0.60100
O1661       O  0.83951175  0.45363271  0.00152184    -0.52100
C1662       C  0.83017753  0.42306578  0.50272685     0.73300
O1663       O  0.70125969  0.41217431  0.00507682    -0.71500
O1664       O  0.66462531  0.44950320  0.00489267    -0.50200
C1665       C  0.67194978  0.42118954  0.50503415     0.74700
O1666       O  0.80164365  0.99544007  0.41630878    -0.66900
O1667       O  0.83758145  0.49854300  0.45347562    -0.54100
C1668       C  0.83008339  0.49682845  0.42533765     0.73100
Zr1669     Zr  0.74969602  0.99472303  0.43777202     2.77500
O1670       O  0.75022586  0.45269690  0.40146598    -0.97600
O1671       O  0.74947174  0.02991089  0.39460643    -0.78400
Zr1672     Zr  0.75232279  0.43500853  0.00579384     2.70100
O1673       O  0.75077540  0.39035701  0.47189504    -0.79700
O1674       O  0.75062123  0.40043528  0.04952402    -0.98800
Zr1675     Zr  0.80924310  0.50090956  0.00102436     2.21500
Zr1676     Zr  0.69159556  0.99653765  0.00135585     2.11100
O1677       O  0.72078319  0.46399757  0.47140711    -2.47500
O1678       O  0.77993419  0.46477522  0.47082321    -0.79500
O1679       O  0.71927981  0.02832301  0.46775635    -0.71700
O1680       O  0.78173782  0.46911897  0.03589999    -2.32600
O1681       O  0.77848748  0.03031426  0.46697480    -2.28800
O1682       O  0.72240076  0.46775706  0.03700250    -0.73400
H1683       H  0.70756940  0.04378121  0.04435093     0.78600
H1684       H  0.79542396  0.45747450  0.04865926     0.79600
H1685       H  0.70764360  0.45057123  0.45969349     0.81900
H1686       H  0.79109128  0.04265955  0.45376090     0.79500
H1687       H  0.75730646  0.48037869  0.12660569     0.42500
H1688       H  0.76571263  0.40898057  0.06396615     0.41500
H1689       H  0.73992979  0.39763158  0.45347146     0.41200
H1690       H  0.76268839  0.43655727  0.41148493     0.39100
H1691       H  0.75129062  0.05062377  0.40379195     0.42200
H1692       H  0.76154206  0.09423466  0.44238180     0.37000
H1693       H  0.74886555  0.09269722  0.05480150     0.43100
H1694       H  0.73838307  0.05542267  0.09555982     0.39500
H1695       H  0.72914483  0.44440982  0.40182527     0.44500
H1696       H  0.74377815  0.11793532  0.46264049     0.43200
H1697       H  0.75120693  0.03239967  0.12004368     0.43300
H1698       H  0.73058234  0.40447610  0.05920904     0.43700
C1699       C  0.87841470  0.35164167  0.52008050    -0.05700
C1700       C  0.90436907  0.35620788  0.00319992     0.00200
C1701       C  0.90543463  0.38206276  0.98325727    -0.08300
C1702       C  0.88172916  0.40418652  0.98460653    -0.05700
C1703       C  0.85493828  0.39946202  0.50275146     0.00200
C1704       C  0.85428483  0.37297732  0.52188570    -0.08200
C1705       C  0.82871964  0.36725808  0.54468168     0.62100
H1706       H  0.87821317  0.33138107  0.53453202     0.12800
H1707       H  0.88175147  0.42355815  0.96901561     0.12900
C1708       C  0.93120839  0.38623632  0.96041713     0.62400
F1709       F  0.83522533  0.34282872  0.56395633    -0.22800
F1710       F  0.80196115  0.36023741  0.52952335    -0.20100
F1711       F  0.83033729  0.40273137  0.06611970    -0.19800
F1712       F  0.93146125  0.36075001  0.43936994    -0.19800
F1713       F  0.95811718  0.39245022  0.97568290    -0.20200
F1714       F  0.92568116  0.41046185  0.94061629    -0.22800
C1715       C  0.87351140  0.15126918  0.48288535    -0.05700
C1716       C  0.90083810  0.14477244  0.00126383     0.00200
C1717       C  0.90526452  0.11396386  0.01174623    -0.08300
C1718       C  0.88061226  0.09306286  0.01020854    -0.05700
C1719       C  0.85210722  0.10111773  0.99769000     0.00200
C1720       C  0.84954072  0.12973990  0.48043341    -0.08200
C1721       C  0.82292577  0.13695687  0.45941549     0.62100
H1722       H  0.87215848  0.17287735  0.47057178     0.12800
H1723       H  0.88355374  0.06987214  0.01884934     0.12900
C1724       C  0.93561685  0.10261687  0.02443413     0.62400
F1725       F  0.82311690  0.16988303  0.95498637    -0.22800
F1726       F  0.79567907  0.14424547  0.98962112    -0.20100
F1727       F  0.81835968  0.11268985  0.43961304    -0.19800
F1728       F  0.93356782  0.07298529  0.03604114    -0.19800
F1729       F  0.93546234  0.13273253  0.55616790    -0.20200
F1730       F  0.95734094  0.10231354  0.00156672    -0.22800
C1731       C  0.65195896  0.37353270  0.48225248    -0.05700
C1732       C  0.64811760  0.39704566  0.50364945     0.00200
C1733       C  0.62179337  0.39893873  0.02103224    -0.08300
C1734       C  0.59950077  0.37604456  0.01712331    -0.05700
C1735       C  0.60419310  0.34961470  0.49806674     0.00200
C1736       C  0.63077797  0.34936237  0.47941686    -0.08200
C1737       C  0.63769416  0.32353938  0.45729433     0.62100
H1738       H  0.67213187  0.37405824  0.46795827     0.12800
H1739       H  0.57808330  0.37764590  0.02939702     0.12900
C1740       C  0.61639144  0.42390894  0.04430572     0.62400
F1741       F  0.66153955  0.33097341  0.43787052    -0.22800
F1742       F  0.61244066  0.31723064  0.43962462    -0.20100
F1743       F  0.64517623  0.29433621  0.98233982    -0.19800
F1744       F  0.61151806  0.44765804  0.53559553    -0.19800
F1745       F  0.64209940  0.42764954  0.06223463    -0.20200
F1746       F  0.59235663  0.41641473  0.06341818    -0.22800
C1747       C  0.59448470  0.11629661  0.51600848    -0.05700
C1748       C  0.59855720  0.14220277  0.49713234     0.00200
C1749       C  0.62691303  0.14503657  0.98033660    -0.08300
C1750       C  0.64853610  0.12127470  0.98211061    -0.05700
C1751       C  0.64400250  0.09511654  0.00035449     0.00200
C1752       C  0.61662301  0.09235044  0.01759590    -0.08200
C1753       C  0.61067735  0.06513397  0.03865322     0.62100
H1754       H  0.57441988  0.11538696  0.53042445     0.12800
H1755       H  0.66944123  0.12297403  0.96899828     0.12900
C1756       C  0.62949792  0.16962666  0.45509668     0.62400
F1757       F  0.58444328  0.06915400  0.05582087    -0.22800
F1758       F  0.60701082  0.03851169  0.02185877    -0.20100
F1759       F  0.63545992  0.06148840  0.55750979    -0.19800
F1760       F  0.64005460  0.19794506  0.97578152    -0.19800
F1761       F  0.60316546  0.17460569  0.43837934    -0.20200
F1762       F  0.65284110  0.16316060  0.43480994    -0.22800
C1763       C  0.90493440  0.00751903  0.38135960    -0.05700
C1764       C  0.89812584  0.99229252  0.35400257     0.00200
C1765       C  0.86920130  0.97757263  0.35109242    -0.08300
C1766       C  0.84868949  0.48150818  0.37406116    -0.05700
C1767       C  0.85520625  0.49587419  0.40194868     0.00200
C1768       C  0.88509318  0.50842845  0.40634138    -0.08200
C1769       C  0.89513583  0.52335329  0.43598619     0.62100
H1770       H  0.92704785  0.01849477  0.38345112     0.12800
H1771       H  0.82628813  0.47140908  0.37097684     0.12900
C1772       C  0.86038749  0.95898609  0.32321668     0.62400
F1773       F  0.92454905  0.53503321  0.43424455    -0.22800
F1774       F  0.89498028  0.50176757  0.45918050    -0.20100
F1775       F  0.87181239  0.05072814  0.43914973    -0.19800
F1776       F  0.88456076  0.44093675  0.31468413    -0.19800
F1777       F  0.85460190  0.97867486  0.29914472    -0.20200
F1778       F  0.83432914  0.94153600  0.32817281    -0.22800
C1779       C  0.65101648  0.51433423  0.37612125    -0.05700
C1780       C  0.64481443  0.49869068  0.40344794     0.00200
C1781       C  0.61567814  0.48453939  0.40709206    -0.08300
C1782       C  0.59466425  0.48533227  0.38262185    -0.05700
C1783       C  0.60117613  0.50044730  0.35496621     0.00200
C1784       C  0.62977941  0.51593611  0.35206414    -0.08200
C1785       C  0.63808620  0.53475804  0.32409443     0.62100
H1786       H  0.67297958  0.52559480  0.37372787     0.12800
H1787       H  0.57067350  0.97744838  0.38502978     0.12900
C1788       C  0.60411457  0.97138539  0.43646036     0.62400
F1789       F  0.66402167  0.55245810  0.32859495    -0.22800
F1790       F  0.61861100  0.04988603  0.31345930    -0.20100
F1791       F  0.64376016  0.51522221  0.29997658    -0.19800
F1792       F  0.60374040  0.99406920  0.45847407    -0.19800
F1793       F  0.62822404  0.44657559  0.44418110    -0.20200
F1794       F  0.57864445  0.45383175  0.43413071    -0.22800
C1795       C  0.62824319  0.51370463  0.15427085    -0.05700
C1796       C  0.59949411  0.50126544  0.14706467     0.00200
C1797       C  0.59272250  0.99119153  0.11375599    -0.08300
C1798       C  0.61751333  0.99229546  0.09315448    -0.05700
C1799       C  0.64721706  0.00134838  0.10170319     0.00200
C1800       C  0.65212098  0.51593996  0.13289609    -0.08200
C1801       C  0.68128644  0.53245317  0.14220242     0.62100
H1802       H  0.63190368  0.52214562  0.17711074     0.12800
H1803       H  0.61368264  0.98604806  0.06978521     0.12900
C1804       C  0.56171748  0.98041253  0.10210680     0.62400
F1805       F  0.67907266  0.03786539  0.17206166    -0.22800
F1806       F  0.68973557  0.04946629  0.12381820    -0.20100
F1807       F  0.70499524  0.51157177  0.14483267    -0.19800
F1808       F  0.54067148  0.00406249  0.10366356    -0.19800
F1809       F  0.55731618  0.45181557  0.12527773    -0.20200
F1810       F  0.56477648  0.46665603  0.07713122    -0.22800
C1811       C  0.90560918  0.98849310  0.11775760    -0.05700
C1812       C  0.89861447  0.00243601  0.14582688     0.00200
C1813       C  0.87021278  0.01806224  0.14893927    -0.08300
C1814       C  0.84958240  0.01795882  0.12443057    -0.05700
C1815       C  0.85605031  0.00308891  0.09684772     0.00200
C1816       C  0.88489494  0.98847719  0.09311894    -0.08200
C1817       C  0.89345754  0.97174627  0.06395079     0.62100
H1818       H  0.92740124  0.97690556  0.11546857     0.12800
H1819       H  0.82770366  0.02936289  0.12684641     0.12900
C1820       C  0.86135944  0.03509107  0.17776223     0.62400
F1821       F  0.92170855  0.95763184  0.06603317    -0.22800
F1822       F  0.89490996  0.99233488  0.03991305    -0.20100
F1823       F  0.87285542  0.45211295  0.05869844    -0.19800
F1824       F  0.88489235  0.05433163  0.18668890    -0.19800
F1825       F  0.85971886  0.52402968  0.20210465    -0.20200
F1826       F  0.84075412  0.56125798  0.17244159    -0.22800
C1827       C  0.97625756  0.09869989  0.37716402    -0.05700
C1828       C  0.00074484  0.09738521  0.35647019     0.00200
C1829       C  0.52185165  0.12086481  0.35764938    -0.08300
C1830       C  0.52050728  0.14266518  0.38135648    -0.05700
C1831       C  0.49678598  0.14270974  0.40285945     0.00200
C1832       C  0.97517853  0.12080788  0.40072888    -0.08200
C1833       C  0.94729500  0.12263250  0.42121498     0.62100
H1834       H  0.95754265  0.08262814  0.37426247     0.12800
H1835       H  0.53810976  0.16010856  0.38327932     0.12900
C1836       C  0.54853590  0.12156381  0.33560032     0.62400
F1837       F  0.92437599  0.10280752  0.41192980    -0.22800
F1838       F  0.93557827  0.15224650  0.42082968    -0.20100
F1839       F  0.95536224  0.11484584  0.45061722    -0.19800
F1840       F  0.53829385  0.12973227  0.30700685    -0.19800
F1841       F  0.56216206  0.09281297  0.33440924    -0.20200
F1842       F  0.57056392  0.14272021  0.34414223    -0.22800
C1843       C  0.52254888  0.39707168  0.37382305    -0.05700
C1844       C  0.49821947  0.39789060  0.35309171     0.00200
C1845       C  0.97422575  0.37276890  0.35512217    -0.08300
C1846       C  0.97623254  0.35101306  0.37885689    -0.05700
C1847       C  0.50005948  0.35284845  0.39978908     0.00200
C1848       C  0.52409485  0.37467938  0.39703970    -0.08200
C1849       C  0.55207505  0.37324564  0.41734546     0.62100
H1850       H  0.54070630  0.41387323  0.37128528     0.12800
H1851       H  0.95949899  0.33268411  0.38060982     0.12900
C1852       C  0.94805142  0.37052844  0.33262807     0.62400
F1853       F  0.57456008  0.39368731  0.40808987    -0.22800
F1854       F  0.56423275  0.34390650  0.41635520    -0.20100
F1855       F  0.54419063  0.38034399  0.44693728    -0.19800
F1856       F  0.95916389  0.36182892  0.30452977    -0.19800
F1857       F  0.93351361  0.39870828  0.33014947    -0.20200
F1858       F  0.92648882  0.34894224  0.34160625    -0.22800
C1859       C  0.52753891  0.35495235  0.12221917    -0.05700
C1860       C  0.00415481  0.35550476  0.09861610     0.00200
C1861       C  0.97976738  0.37688981  0.10109377    -0.08300
C1862       C  0.98031382  0.39873316  0.12483438    -0.05700
C1863       C  0.50559453  0.40056470  0.14631481     0.00200
C1864       C  0.52790675  0.37670918  0.14601968    -0.08200
C1865       C  0.55186321  0.37379898  0.17084620     0.62100
H1866       H  0.54438800  0.33667410  0.12169052     0.12800
H1867       H  0.96176894  0.41508978  0.12722294     0.12900
C1868       C  0.95287415  0.37599990  0.07931240     0.62400
F1869       F  0.57406009  0.35228923  0.16362086    -0.22800
F1870       F  0.53801358  0.36439442  0.19756414    -0.20100
F1871       F  0.56627420  0.40180629  0.17530986    -0.19800
F1872       F  0.94016030  0.34680112  0.07914280    -0.19800
F1873       F  0.96264378  0.38351091  0.05033194    -0.20200
F1874       F  0.93022937  0.39664695  0.08746272    -0.22800
C1875       C  0.97278025  0.12039227  0.14440496    -0.05700
C1876       C  0.99833192  0.10128763  0.14862082     0.00200
C1877       C  0.52620255  0.10587191  0.13006539    -0.08300
C1878       C  0.52575375  0.12867567  0.10718969    -0.05700
C1879       C  0.99807993  0.14674088  0.10242776     0.00200
C1880       C  0.97233119  0.14344359  0.12173020    -0.08200
C1881       C  0.94483835  0.16464270  0.11884456     0.62100
H1882       H  0.95326671  0.11730658  0.15928248     0.12800
H1883       H  0.54610069  0.13334766  0.09389119     0.12900
C1884       C  0.55531821  0.08798212  0.13621928     0.62400
F1885       F  0.92042717  0.15437889  0.13615204    -0.22800
F1886       F  0.93529015  0.16645656  0.08892362    -0.20100
F1887       F  0.95269027  0.19376009  0.12875003    -0.19800
F1888       F  0.55101825  0.05765442  0.12812398    -0.19800
F1889       F  0.56265673  0.08941694  0.16676653    -0.20200
F1890       F  0.57983570  0.09938831  0.11976847    -0.22800
O1891       O  0.91379742  0.00452070  0.69963310    -0.75200
O1892       O  0.95134090  0.00383026  0.66386341    -0.54100
C1893       C  0.92303611  0.00527799  0.67184137     0.78500
O1894       O  0.99836501  0.08554985  0.80422617    -0.59800
O1895       O  0.00046760  0.04624305  0.83893839    -0.52800
C1896       C  0.99966068  0.07502412  0.83169918     0.70600
O1897       O  0.99861206  0.08764065  0.70106291    -0.74400
O1898       O  0.50113632  0.05006489  0.66463327    -0.54900
C1899       C  0.99881322  0.07833194  0.67323117     0.76600
O1900       O  0.91379551  0.99793817  0.80174968    -0.59500
O1901       O  0.95221969  0.49737719  0.83933558    -0.52600
C1902       C  0.92303222  0.99807455  0.82952457     0.73100
Zr1903     Zr  0.93553742  0.99971858  0.75069381     2.54700
O1904       O  0.89864764  0.04155807  0.75441186    -0.80100
O1905       O  0.89774769  0.45734657  0.74785010    -0.93500
Zr1906     Zr  0.99844220  0.06486115  0.75220500     2.64700
O1907       O  0.95470043  0.09952684  0.75038014    -0.98400
O1908       O  0.53719717  0.10289569  0.75320077    -0.80500
O1909       O  0.96666204  0.03329142  0.72170128    -0.83900
O1910       O  0.96680720  0.03172584  0.78129093    -2.18600
O1911       O  0.49899360  0.41215943  0.80130184    -0.67200
O1912       O  0.99974904  0.44942548  0.83745829    -0.51800
C1913       C  0.49895904  0.42099549  0.82925196     0.71500
O1914       O  0.58534980  0.49987839  0.69966857    -0.60100
O1915       O  0.54627575  0.00079651  0.66305637    -0.52100
C1916       C  0.57560314  0.50139170  0.67198667     0.73300
O1917       O  0.58578516  0.50051164  0.80235476    -0.71500
O1918       O  0.54874096  0.49810065  0.83843971    -0.50200
C1919       C  0.57709999  0.49953610  0.83028561     0.74700
O1920       O  0.50386969  0.41455398  0.69793402    -0.66900
O1921       O  0.50042521  0.45367877  0.66331899    -0.54100
C1922       C  0.50289994  0.42489746  0.67039019     0.73100
Zr1923     Zr  0.50064279  0.43471386  0.75009159     2.77500
O1924       O  0.54019030  0.39525590  0.75218209    -0.97600
O1925       O  0.96103789  0.39591615  0.74648884    -0.78400
Zr1926     Zr  0.56376540  0.50060792  0.75124409     2.70100
O1927       O  0.60536673  0.46336443  0.75183402    -0.79700
O1928       O  0.59769826  0.04282846  0.74583734    -0.98800
Zr1929     Zr  0.49869219  0.00074929  0.69123004     2.21500
Zr1930     Zr  0.99998223  0.49843158  0.81049482     2.11100
O1931       O  0.53286694  0.46635195  0.78023166    -2.47500
O1932       O  0.53273732  0.46785476  0.72117697    -0.79500
O1933       O  0.96767304  0.46585678  0.78082178    -0.71700
O1934       O  0.53044233  0.03298612  0.72161785    -2.32600
O1935       O  0.96724819  0.46717816  0.72138738    -2.28800
O1936       O  0.53054288  0.03132230  0.78072248    -0.73400
H1937       H  0.95417535  0.04383660  0.79465097     0.78600
H1938       H  0.54301782  0.04605628  0.70910520     0.79600
H1939       H  0.54570165  0.45357460  0.79296153     0.81900
H1940       H  0.95483501  0.45458786  0.70795860     0.79500
H1941       H  0.55172905  0.09556851  0.76886994     0.42500
H1942       H  0.59268785  0.05634638  0.76319298     0.41500
H1943       H  0.59515761  0.44316874  0.75445048     0.41200
H1944       H  0.55400332  0.40175963  0.76878430     0.39100
H1945       H  0.94380227  0.40407016  0.75863748     0.42200
H1946       H  0.90593385  0.44323617  0.73219416     0.37000
H1947       H  0.87870631  0.03117882  0.75732422     0.43100
H1948       H  0.94280845  0.09268406  0.73246629     0.39500
H1949       H  0.52973483  0.37670513  0.76023848     0.44500
H1950       H  0.87974014  0.46703404  0.73810650     0.43200
H1951       H  0.94192958  0.09355697  0.76802259     0.43300
H1952       H  0.61803965  0.03413044  0.75061920     0.43700
O1953       O  0.99948606  0.20010193  0.58796559    -0.75200
O1954       O  0.50040830  0.16372093  0.55189087    -0.54100
C1955       C  0.99859735  0.17183567  0.57933224     0.78500
O1956       O  0.91662448  0.30272612  0.50043294    -0.59800
O1957       O  0.95494769  0.33837731  0.49899571    -0.52800
C1958       C  0.92652365  0.33072841  0.49934599     0.70600
O1959       O  0.91415026  0.19851757  0.50157743    -0.74400
O1960       O  0.95152688  0.16202118  0.50267310    -0.54900
C1961       C  0.92333777  0.17024267  0.50199508     0.76600
O1962       O  0.00354471  0.30343101  0.58585723    -0.59500
O1963       O  0.00242331  0.33859887  0.54719570    -0.52600
C1964       C  0.00279953  0.33133962  0.57564229     0.73100
Zr1965     Zr  0.00213116  0.25107739  0.56491269     2.54700
O1966       O  0.96047490  0.25408103  0.60155077    -0.80100
O1967       O  0.54588058  0.25175291  0.60061951    -0.93500
Zr1968     Zr  0.93691723  0.25019210  0.50262120     2.64700
O1969       O  0.90262588  0.25037802  0.54622715    -0.98400
O1970       O  0.89676387  0.25086456  0.96656647    -0.80500
O1971       O  0.96869425  0.22043573  0.53497149    -0.83900
O1972       O  0.96954543  0.28064334  0.53337879    -2.18600
O1973       O  0.58871415  0.29821756  0.99678491    -0.67200
O1974       O  0.55197003  0.33451243  0.49841433    -0.51800
C1975       C  0.58026338  0.32647242  0.99790308     0.71500
O1976       O  0.49749317  0.19764982  0.91533163    -0.60100
O1977       O  0.49962668  0.16124047  0.95273818    -0.52100
C1978       C  0.49801954  0.16945018  0.92448179     0.73300
O1979       O  0.49882465  0.30132956  0.91602432    -0.71500
O1980       O  0.00261359  0.33644664  0.95284056    -0.50200
C1981       C  0.50080130  0.32940062  0.92537067     0.74700
O1982       O  0.58518878  0.19521335  0.49747802    -0.66900
O1983       O  0.54700214  0.15966686  0.50053722    -0.54100
C1984       C  0.57642431  0.16748485  0.99860623     0.73100
Zr1985     Zr  0.56441772  0.24732586  0.49716398     2.77500
O1986       O  0.59602674  0.24419329  0.95058166    -0.97600
O1987       O  0.60580440  0.24651970  0.53407185    -0.78400
Zr1988     Zr  0.49806477  0.24925279  0.93732977     2.70100
O1989       O  0.53343154  0.24734491  0.89460344    -0.79700
O1990       O  0.96025491  0.24730539  0.89895201    -0.98800
Zr1991     Zr  0.49991171  0.18950821  0.50228129     2.21500
Zr1992     Zr  0.00217045  0.30881408  0.50010551     2.11100
O1993       O  0.53300613  0.27856954  0.96658432    -2.47500
O1994       O  0.53180105  0.21827011  0.96659546    -0.79500
O1995       O  0.53571514  0.27945642  0.53038279    -0.71700
O1996       O  0.96784874  0.21941876  0.97064362    -2.32600
O1997       O  0.53400632  0.21960276  0.53242015    -2.28800
O1998       O  0.96885634  0.27890110  0.96987949    -0.73400
H1999       H  0.95738147  0.29447041  0.54560898     0.78600
H2000       H  0.95466161  0.20632461  0.95850766     0.79600
H2001       H  0.54513817  0.29153814  0.95346642     0.81900
H2002       H  0.54682834  0.20653989  0.54473380     0.79500
H2003       H  0.87826864  0.24472536  0.97806361     0.42500
H2004       H  0.94827989  0.26633868  0.90234270     0.41500
H2005       H  0.54878514  0.23166657  0.90053841     0.41200
H2006       H  0.58817091  0.26061573  0.93704191     0.39100
H2007       H  0.59956108  0.26165212  0.54969582     0.42200
H2008       H  0.56052045  0.26709352  0.59244985     0.37000
H2009       H  0.94929003  0.27323340  0.59641000     0.43100
H2010       H  0.88215613  0.24645468  0.53747213     0.39500
H2011       H  0.61668449  0.25120838  0.95647825     0.44500
H2012       H  0.55614860  0.23164862  0.59771441     0.43200
H2013       H  0.90764092  0.23124804  0.55751031     0.43300
H2014       H  0.97125555  0.25098974  0.87959064     0.43700
O2015       O  0.79893863  0.08638880  0.49644396    -0.75200
O2016       O  0.83560860  0.04919978  0.49876835    -0.54100
C2017       C  0.82704639  0.07757506  0.49710627     0.78500
O2018       O  0.70026725  0.50483966  0.58810138    -0.59800
O2019       O  0.66416425  0.99936648  0.55099620    -0.52800
C2020       C  0.67225070  0.00143084  0.57918965     0.70600
O2021       O  0.80340951  0.50425388  0.58591687    -0.74400
O2022       O  0.83819304  0.50392985  0.54750168    -0.54900
C2023       C  0.83102108  0.00322393  0.57588865     0.76600
O2024       O  0.69553379  0.08244223  0.49922896    -0.59500
O2025       O  0.66112376  0.04304297  0.50001936    -0.52600
C2026       C  0.66800545  0.07175759  0.49959860     0.73100
Zr2027     Zr  0.74803949  0.06286512  0.49794047     2.54700
O2028       O  0.74797591  0.10555718  0.53371982    -0.80100
O2029       O  0.74317988  0.09804306  0.95518180    -0.93500
Zr2030     Zr  0.75140778  0.50286551  0.56526502     2.64700
O2031       O  0.75594921  0.04599802  0.59872850    -0.98400
O2032       O  0.75138362  0.46468702  0.60596185    -0.80500
O2033       O  0.77921133  0.03370085  0.53160660    -0.83900
O2034       O  0.72013529  0.03185844  0.53269419    -2.18600
O2035       O  0.69645030  0.99522048  0.91614180    -0.67200
O2036       O  0.66161312  0.99532979  0.95454965    -0.51800
C2037       C  0.66959507  0.49680678  0.92768268     0.71500
O2038       O  0.80243456  0.41333592  0.50385652    -0.60100
O2039       O  0.83788400  0.45173764  0.50124079    -0.52100
C2040       C  0.83232069  0.42494469  0.00440580     0.73300
O2041       O  0.69992737  0.41201183  0.50515868    -0.71500
O2042       O  0.66346870  0.44954589  0.50476749    -0.50200
C2043       C  0.67320541  0.42122336  0.00509113     0.74700
O2044       O  0.80126364  0.99689470  0.91407807    -0.66900
O2045       O  0.83764341  0.49933975  0.95397937    -0.54100
C2046       C  0.82994383  0.49797281  0.92587575     0.73100
Zr2047     Zr  0.74926960  0.99557866  0.93587565     2.77500
O2048       O  0.74759410  0.45377631  0.90256759    -0.97600
O2049       O  0.74908466  0.03459425  0.89597719    -0.78400
Zr2050     Zr  0.75095510  0.43466302  0.50568086     2.70100
O2051       O  0.75422422  0.39151964  0.97105314    -0.79700
O2052       O  0.75054091  0.40219681  0.55095589    -0.98800
Zr2053     Zr  0.80904638  0.49995164  0.50059758     2.21500
Zr2054     Zr  0.69138349  0.99673949  0.50234721     2.11100
O2055       O  0.72161402  0.46444633  0.97194267    -2.47500
O2056       O  0.78056980  0.46574196  0.97085857    -0.79500
O2057       O  0.71926678  0.02859365  0.96692939    -0.71700
O2058       O  0.78109118  0.46854993  0.53545409    -2.32600
O2059       O  0.77853719  0.03028687  0.96568512    -2.28800
O2060       O  0.72128842  0.46765505  0.53676719    -0.73400
H2061       H  0.70690258  0.04473950  0.54472291     0.78600
H2062       H  0.79465931  0.45679666  0.54822995     0.79600
H2063       H  0.70866429  0.45099366  0.96012896     0.81900
H2064       H  0.79110864  0.04293246  0.95272205     0.79500
H2065       H  0.76545778  0.44835376  0.59885534     0.42500
H2066       H  0.73267162  0.40938928  0.56280901     0.41500
H2067       H  0.75142725  0.40081680  0.95066425     0.41200
H2068       H  0.75040333  0.46343995  0.88233461     0.39100
H2069       H  0.73991218  0.02421385  0.87817128     0.42200
H2070       H  0.75971426  0.09248102  0.94086223     0.37000
H2071       H  0.76390506  0.10013474  0.54879355     0.43100
H2072       H  0.73850382  0.05943650  0.59333523     0.39500
H2073       H  0.76671295  0.44211876  0.90612330     0.44500
H2074       H  0.74918275  0.11834328  0.96345075     0.43200
H2075       H  0.75119135  0.03804848  0.61931114     0.43300
H2076       H  0.74443335  0.38159984  0.54348135     0.43700
C2077       C  0.88075120  0.35435476  0.02474746    -0.05700
C2078       C  0.90303213  0.35555653  0.49995203     0.00200
C2079       C  0.90375259  0.38196291  0.48079105    -0.08300
C2080       C  0.87978152  0.40364178  0.48286569    -0.05700
C2081       C  0.85749955  0.40167699  0.00550876     0.00200
C2082       C  0.85772156  0.37697096  0.02680936    -0.08200
C2083       C  0.83411822  0.37449602  0.05206638     0.62100
H2084       H  0.88054853  0.33489698  0.04024497     0.12800
H2085       H  0.87992586  0.42388689  0.46839346     0.12900
C2086       C  0.92882390  0.38672596  0.45732851     0.62400
F2087       F  0.84286864  0.35349781  0.07417229    -0.22800
F2088       F  0.80654299  0.36485932  0.04013273    -0.20100
F2089       F  0.82440816  0.39316874  0.56242219    -0.19800
F2090       F  0.93472119  0.35979110  0.94327635    -0.19800
F2091       F  0.95632582  0.39232467  0.47172671    -0.20200
F2092       F  0.92271362  0.41153247  0.43838988    -0.22800
C2093       C  0.87252920  0.15265023  0.98833365    -0.05700
C2094       C  0.89959144  0.14561565  0.50065139     0.00200
C2095       C  0.90206407  0.11709091  0.51645385    -0.08300
C2096       C  0.87788244  0.09575918  0.51439176    -0.05700
C2097       C  0.85150427  0.10162492  0.49706084     0.00200
C2098       C  0.84833380  0.13142298  0.98569076    -0.08200
C2099       C  0.81952589  0.14156190  0.96916913     0.62100
H2100       H  0.86954934  0.17584987  0.97971801     0.12800
H2101       H  0.87933111  0.07415376  0.52669843     0.12900
C2102       C  0.92966509  0.10913084  0.53594899     0.62400
F2103       F  0.82815654  0.16316482  0.44211693    -0.22800
F2104       F  0.79678039  0.14196700  0.47632494    -0.20100
F2105       F  0.81224920  0.12035119  0.94692067    -0.19800
F2106       F  0.92516679  0.08246052  0.55272585    -0.19800
F2107       F  0.94520289  0.12154006  0.04773725    -0.20200
F2108       F  0.95493121  0.10458428  0.51759621    -0.22800
C2109       C  0.65447204  0.37147607  0.98558157    -0.05700
C2110       C  0.64923779  0.39716207  0.00406026     0.00200
C2111       C  0.62257666  0.39627128  0.52337181    -0.08300
C2112       C  0.60060213  0.37300603  0.51965629    -0.05700
C2113       C  0.60461767  0.35028715  0.99868262     0.00200
C2114       C  0.63299928  0.34754384  0.98301676    -0.08200
C2115       C  0.64109031  0.31974361  0.96373804     0.62100
H2116       H  0.67586484  0.37020702  0.97324659     0.12800
H2117       H  0.58058948  0.37251663  0.53418184     0.12900
C2118       C  0.61863640  0.41954817  0.54849891     0.62400
F2119       F  0.66797283  0.32405758  0.94763621    -0.22800
F2120       F  0.61807832  0.31413439  0.94295641    -0.20100
F2121       F  0.64598796  0.29751275  0.47345439    -0.19800
F2122       F  0.60959657  0.45120219  0.02951100    -0.19800
F2123       F  0.64529404  0.42196851  0.56524604    -0.20200
F2124       F  0.59540257  0.41122084  0.56828341    -0.22800
C2125       C  0.59492240  0.11629719  0.01591951    -0.05700
C2126       C  0.59982808  0.14272940  0.99803787     0.00200
C2127       C  0.62449686  0.14353056  0.47766527    -0.08300
C2128       C  0.64617743  0.11974092  0.47912637    -0.05700
C2129       C  0.64269953  0.09446546  0.49870100     0.00200
C2130       C  0.61604579  0.09214853  0.51703788    -0.08200
C2131       C  0.61072129  0.06491925  0.53823524     0.62100
H2132       H  0.57407640  0.11486098  0.02914724     0.12800
H2133       H  0.66638550  0.12077954  0.46490615     0.12900
C2134       C  0.63303312  0.17199391  0.95903311     0.62400
F2135       F  0.58486078  0.06874311  0.55592042    -0.22800
F2136       F  0.60677057  0.03830390  0.52148303    -0.20100
F2137       F  0.63492794  0.06164275  0.05851424    -0.19800
F2138       F  0.63740358  0.19611946  0.47053092    -0.19800
F2139       F  0.60758742  0.17754071  0.94117745    -0.20200
F2140       F  0.65737448  0.16629451  0.93971485    -0.22800
C2141       C  0.90171529  0.01844374  0.87799787    -0.05700
C2142       C  0.89907936  0.99772767  0.85365188     0.00200
C2143       C  0.87347663  0.97761586  0.85255952    -0.08300
C2144       C  0.85111253  0.47872814  0.87711721    -0.05700
C2145       C  0.85502776  0.49751932  0.90271614     0.00200
C2146       C  0.88237058  0.51519741  0.90530792    -0.08200
C2147       C  0.88843491  0.53597212  0.93245275     0.62100
H2148       H  0.92120573  0.03383528  0.87833275     0.12800
H2149       H  0.83042895  0.46511131  0.87557068     0.12900
C2150       C  0.86889726  0.95490262  0.82679542     0.62400
F2151       F  0.91369290  0.55467021  0.92794634    -0.22800
F2152       F  0.89386104  0.51815102  0.95802263    -0.20100
F2153       F  0.85675087  0.06171036  0.92810116    -0.19800
F2154       F  0.89338105  0.43682708  0.82312211    -0.19800
F2155       F  0.85989849  0.97068840  0.80096217    -0.20200
F2156       F  0.84660393  0.93330064  0.83357578    -0.22800
C2157       C  0.65300415  0.50764186  0.87452595    -0.05700
C2158       C  0.64472433  0.49749187  0.90382698     0.00200
C2159       C  0.61377506  0.48839717  0.90875956    -0.08300
C2160       C  0.59299368  0.48927713  0.88410859    -0.05700
C2161       C  0.60133677  0.49946507  0.85478453     0.00200
C2162       C  0.63219064  0.50925302  0.85009451    -0.08200
C2163       C  0.64352017  0.52278898  0.82012404     0.62100
H2164       H  0.67634103  0.51499442  0.87086996     0.12800
H2165       H  0.56865208  0.97646493  0.88683577     0.12900
C2166       C  0.60259619  0.97137470  0.93819140     0.62400
F2167       F  0.67348974  0.53291161  0.82183534    -0.22800
F2168       F  0.61715605  0.04807874  0.81391861    -0.20100
F2169       F  0.64247895  0.50087171  0.79740314    -0.19800
F2170       F  0.60321967  0.99424526  0.96000600    -0.19800
F2171       F  0.61971164  0.45274867  0.94948744    -0.20200
F2172       F  0.57212733  0.46779489  0.93849469    -0.22800
C2173       C  0.62731592  0.51670863  0.65395470    -0.05700
C2174       C  0.59904718  0.50296988  0.64708475     0.00200
C2175       C  0.59353984  0.99082953  0.61568576    -0.08300
C2176       C  0.61813494  0.99209324  0.59492632    -0.05700
C2177       C  0.64743091  0.00270570  0.60297992     0.00200
C2178       C  0.65143176  0.51862274  0.63269827    -0.08200
C2179       C  0.68052547  0.53519159  0.64196175     0.62100
H2180       H  0.63050727  0.52603312  0.67653069     0.12800
H2181       H  0.61456183  0.98444573  0.57191280     0.12900
C2182       C  0.56314126  0.97763290  0.60495044     0.62400
F2183       F  0.67840528  0.04319276  0.67160236    -0.22800
F2184       F  0.68908725  0.05263523  0.62288441    -0.20100
F2185       F  0.70398199  0.51413201  0.64539328    -0.19800
F2186       F  0.54060803  0.99985700  0.60577065    -0.19800
F2187       F  0.56045898  0.45003703  0.62711733    -0.20200
F2188       F  0.56679748  0.46365953  0.57849328    -0.22800
C2189       C  0.90680876  0.99351833  0.61891560    -0.05700
C2190       C  0.89955854  0.00692703  0.64712038     0.00200
C2191       C  0.87042528  0.02107514  0.65072531    -0.08300
C2192       C  0.84933343  0.01962306  0.62662461    -0.05700
C2193       C  0.85609628  0.00508961  0.59891639     0.00200
C2194       C  0.88579864  0.99243841  0.59463156    -0.08200
C2195       C  0.89537658  0.97706551  0.56508700     0.62100
H2196       H  0.92913794  0.98314872  0.61618331     0.12800
H2197       H  0.82690308  0.02976142  0.62945141     0.12900
C2198       C  0.86102955  0.03760877  0.67969164     0.62400
F2199       F  0.92438624  0.96450698  0.56689236    -0.22800
F2200       F  0.89575168  0.99851841  0.54176361    -0.20100
F2201       F  0.87513808  0.45510437  0.55726253    -0.19800
F2202       F  0.88366772  0.05795637  0.68853963    -0.19800
F2203       F  0.85636432  0.51454457  0.70339758    -0.20200
F2204       F  0.83476829  0.55326576  0.67764780    -0.22800
C2205       C  0.97334233  0.11480462  0.86254793    -0.05700
C2206       C  0.00001260  0.09785716  0.85680796     0.00200
C2207       C  0.51678924  0.09456280  0.88293925    -0.08300
C2208       C  0.51545389  0.11840849  0.90476999    -0.05700
C2209       C  0.49717312  0.14479399  0.90064380     0.00200
C2210       C  0.97204754  0.13703420  0.88585813    -0.08200
C2211       C  0.94222157  0.15349682  0.89257631     0.62100
H2212       H  0.95335991  0.11019724  0.84876497     0.12800
H2213       H  0.52937079  0.11691253  0.92507388     0.12900
C2214       C  0.53907649  0.06810252  0.88745573     0.62400
F2215       F  0.91860296  0.14294873  0.87445739    -0.22800
F2216       F  0.94552434  0.18472178  0.88739185    -0.20100
F2217       F  0.93416340  0.14867305  0.92264768    -0.19800
F2218       F  0.55622828  0.06387637  0.86134985    -0.19800
F2219       F  0.52318618  0.04136692  0.89408076    -0.20200
F2220       F  0.55919300  0.07372265  0.91107958    -0.22800
C2221       C  0.51915480  0.40080302  0.87789424    -0.05700
C2222       C  0.49883248  0.39706653  0.85344867     0.00200
C2223       C  0.98022487  0.36963329  0.85160385    -0.08300
C2224       C  0.98222801  0.34807698  0.87552055    -0.05700
C2225       C  0.50046860  0.35383052  0.90175214     0.00200
C2226       C  0.52115954  0.37900535  0.90158462    -0.08200
C2227       C  0.54650145  0.38194872  0.92501784     0.62100
H2228       H  0.53425015  0.42060462  0.87779967     0.12800
H2229       H  0.96881790  0.32711976  0.87457531     0.12900
C2230       C  0.95840632  0.36332707  0.82547163     0.62400
F2231       F  0.56782103  0.40398314  0.91660795    -0.22800
F2232       F  0.56175858  0.35417250  0.92795727    -0.20100
F2233       F  0.53434772  0.39029515  0.95281390    -0.19800
F2234       F  0.97481157  0.35655748  0.79946616    -0.19800
F2235       F  0.94011595  0.38880005  0.82032857    -0.20200
F2236       F  0.93935142  0.33856645  0.83156247    -0.22800
C2237       C  0.52488413  0.35614361  0.62029136    -0.05700
C2238       C  0.00259248  0.35663888  0.59861503     0.00200
C2239       C  0.98075714  0.38087488  0.59848699    -0.08300
C2240       C  0.98145972  0.40302541  0.62203706    -0.05700
C2241       C  0.50420458  0.40193746  0.64503254     0.00200
C2242       C  0.52612722  0.37778909  0.64409236    -0.08200
C2243       C  0.55139705  0.37502244  0.66757180     0.62100
H2244       H  0.54100382  0.33720528  0.61984240     0.12800
H2245       H  0.96483319  0.42151718  0.62235130     0.12900
C2246       C  0.95596455  0.38253368  0.57440020     0.62400
F2247       F  0.57336346  0.35378595  0.65895748    -0.22800
F2248       F  0.53926051  0.36547953  0.69501403    -0.20100
F2249       F  0.56580927  0.40313617  0.67122726    -0.19800
F2250       F  0.94054693  0.35473188  0.57304425    -0.19800
F2251       F  0.96886671  0.38894906  0.54638702    -0.20200
F2252       F  0.93476437  0.40528066  0.58066227    -0.22800
C2253       C  0.97647170  0.12481202  0.64933983    -0.05700
C2254       C  0.99918852  0.10206291  0.64905668     0.00200
C2255       C  0.52530950  0.10577044  0.62840680    -0.08300
C2256       C  0.52344513  0.12842523  0.60548100    -0.05700
C2257       C  0.99767863  0.14805217  0.60349363     0.00200
C2258       C  0.97560138  0.14829158  0.62719358    -0.08200
C2259       C  0.95159507  0.17343754  0.62958623     0.62100
H2260       H  0.95961684  0.12424749  0.66739161     0.12800
H2261       H  0.54154765  0.13059035  0.58877808     0.12900
C2262       C  0.55381229  0.08608785  0.63086932     0.62400
F2263       F  0.92970472  0.16656629  0.65132218    -0.22800
F2264       F  0.93683677  0.17734769  0.60204895    -0.20100
F2265       F  0.96551918  0.20073742  0.63782822    -0.19800
F2266       F  0.54674230  0.05604217  0.62384654    -0.19800
F2267       F  0.56533243  0.08737927  0.66011164    -0.20200
F2268       F  0.57653933  0.09593254  0.61119516    -0.22800
O2269       O  0.91444352  0.50280193  0.19946678    -0.75200
O2270       O  0.95224797  0.50225491  0.16386180    -0.54100
C2271       C  0.92390652  0.50366631  0.17173209     0.78500
O2272       O  0.00381003  0.58486863  0.30356129    -0.59800
O2273       O  0.00012928  0.54633535  0.33888303    -0.52800
C2274       C  0.00259366  0.57501109  0.33127242     0.70600
O2275       O  0.99904364  0.58615922  0.20052425    -0.74400
O2276       O  0.50076774  0.54954967  0.16457631    -0.54900
C2277       C  0.99958858  0.57673733  0.17270591     0.76600
O2278       O  0.91424031  0.49529796  0.30185728    -0.59500
O2279       O  0.95005405  0.99465347  0.33715486    -0.52600
C2280       C  0.92328362  0.49467564  0.32967606     0.73100
Zr2281     Zr  0.93587698  0.49900483  0.25079381     2.54700
O2282       O  0.89946892  0.54127985  0.25420604    -0.80100
O2283       O  0.89789332  0.95345792  0.24821739    -0.93500
Zr2284     Zr  0.99959018  0.56355894  0.25194163     2.64700
O2285       O  0.95573238  0.59786532  0.25543088    -0.98400
O2286       O  0.54120211  0.60194909  0.25200079    -0.80500
O2287       O  0.96752498  0.53206299  0.22161142    -0.83900
O2288       O  0.96730749  0.53112139  0.28127838    -2.18600
O2289       O  0.49624046  0.91200463  0.30023995    -0.67200
O2290       O  0.99918707  0.94894858  0.33634812    -0.51800
C2291       C  0.49762144  0.92109294  0.32806713     0.71500
O2292       O  0.58359003  0.99751302  0.19715304    -0.60100
O2293       O  0.54778541  0.50141655  0.16453177    -0.52100
C2294       C  0.57404546  0.99863623  0.16934251     0.73300
O2295       O  0.58592288  0.99859482  0.30054537    -0.71500
O2296       O  0.54864382  0.99896926  0.33670005    -0.50200
C2297       C  0.57706133  0.99894319  0.32854756     0.74700
O2298       O  0.50239426  0.91317187  0.19728327    -0.66900
O2299       O  0.49880060  0.95193831  0.16222245    -0.54100
C2300       C  0.50117448  0.92330616  0.16968596     0.73100
Zr2301     Zr  0.49991644  0.93412497  0.24909191     2.77500
O2302       O  0.54186958  0.89730185  0.25218973    -0.97600
O2303       O  0.96470933  0.89192510  0.24610503    -0.78400
Zr2304     Zr  0.56331600  0.99916969  0.24932802     2.70100
O2305       O  0.60289691  0.95971217  0.24937745    -0.79700
O2306       O  0.59638017  0.54726813  0.24845006    -0.98800
Zr2307     Zr  0.50008021  0.50084887  0.19225656     2.21500
Zr2308     Zr  0.99831995  0.99794876  0.30948254     2.11100
O2309       O  0.53206496  0.96600272  0.27903016    -2.47500
O2310       O  0.53184211  0.96664013  0.21952009    -0.79500
O2311       O  0.96718868  0.96459965  0.27943584    -0.71700
O2312       O  0.53211607  0.53373466  0.22176284    -2.32600
O2313       O  0.96673437  0.96514179  0.22021091    -2.28800
O2314       O  0.53231043  0.53303581  0.28151307    -0.73400
H2315       H  0.95477654  0.54345627  0.29448570     0.78600
H2316       H  0.54444394  0.54653971  0.20879420     0.79600
H2317       H  0.54478488  0.95324626  0.29186885     0.81900
H2318       H  0.95469643  0.95216526  0.20678391     0.79500
H2319       H  0.55259205  0.59808986  0.23293254     0.42500
H2320       H  0.58928056  0.56035630  0.26542946     0.41500
H2321       H  0.62226824  0.97124938  0.24689599     0.41200
H2322       H  0.55884975  0.90737660  0.24106816     0.39100
H2323       H  0.94446830  0.90165483  0.24909155     0.42200
H2324       H  0.90326324  0.94199866  0.22953553     0.37000
H2325       H  0.88087630  0.53202207  0.26324751     0.43100
H2326       H  0.96312720  0.61771660  0.24705207     0.39500
H2327       H  0.54846776  0.89751736  0.27371683     0.44500
H2328       H  0.87798378  0.96318155  0.24348067     0.43200
H2329       H  0.94126196  0.59009983  0.23994759     0.43300
H2330       H  0.61698154  0.54021557  0.25454632     0.43700
O2331       O  0.99990105  0.69925294  0.08743369    -0.75200
O2332       O  0.49945869  0.66305738  0.05039071    -0.54100
C2333       C  0.99948788  0.67097761  0.07854532     0.78500
O2334       O  0.91809125  0.80305830  0.00208046    -0.59800
O2335       O  0.95641222  0.83852832  0.99866775    -0.52800
C2336       C  0.92802608  0.83102460  0.00004652     0.70600
O2337       O  0.91661383  0.69813430  0.00373723    -0.74400
O2338       O  0.95377077  0.66159112  0.00199759    -0.54900
C2339       C  0.92562537  0.66978365  0.00276080     0.76600
O2340       O  0.00565492  0.80321413  0.08457192    -0.59500
O2341       O  0.00322999  0.83877297  0.04623917    -0.52600
C2342       C  0.00422275  0.83118984  0.07456081     0.73100
Zr2343     Zr  0.00527864  0.75046106  0.06434916     2.54700
O2344       O  0.97088855  0.75415185  0.10768214    -0.80100
O2345       O  0.54651601  0.75132635  0.09810234    -0.93500
Zr2346     Zr  0.93831700  0.75032406  0.00367523     2.64700
O2347       O  0.90385007  0.75135468  0.04715666    -0.98400
O2348       O  0.89601250  0.75098476  0.46762981    -0.80500
O2349       O  0.97086917  0.72030334  0.03508903    -0.83900
O2350       O  0.97180478  0.78030802  0.03378269    -2.18600
O2351       O  0.58758829  0.79775479  0.49661409    -0.67200
O2352       O  0.55016177  0.83560794  0.99763247    -0.51800
C2353       C  0.57899441  0.82599275  0.49661356     0.71500
O2354       O  0.49923412  0.69468106  0.41777715    -0.60100
O2355       O  0.49715303  0.65959776  0.45655086    -0.52100
C2356       C  0.49804768  0.66683797  0.42812772     0.73300
O2357       O  0.49738614  0.79921452  0.41348694    -0.71500
O2358       O  0.00285348  0.83668343  0.45166705    -0.50200
C2359       C  0.49895537  0.82753066  0.42229487     0.74700
O2360       O  0.58424802  0.69584227  0.99903806    -0.66900
O2361       O  0.54597617  0.66028414  0.99970772    -0.54100
C2362       C  0.57480484  0.66807442  0.49731727     0.73100
Zr2363     Zr  0.56342438  0.74787722  0.99662737     2.77500
O2364       O  0.59491427  0.74411548  0.45240440    -0.97600
O2365       O  0.60774417  0.74900448  0.03001180    -0.78400
Zr2366     Zr  0.49743309  0.74760638  0.43672176     2.70100
O2367       O  0.53360787  0.74724424  0.39462919    -0.79700
O2368       O  0.95644214  0.74573394  0.40079021    -0.98800
Zr2369     Zr  0.49904838  0.69021913  0.00180523     2.21500
Zr2370     Zr  0.00334815  0.80887465  0.99944991     2.11100
O2371       O  0.53161922  0.77787608  0.46587840    -2.47500
O2372       O  0.53007400  0.71760544  0.46816631    -0.79500
O2373       O  0.53452720  0.77949072  0.03003343    -0.71700
O2374       O  0.96686127  0.71957073  0.47092927    -2.32600
O2375       O  0.53334981  0.71975142  0.03198924    -2.28800
O2376       O  0.96837879  0.77953349  0.46961565    -0.73400
H2377       H  0.95980338  0.79390927  0.04648691     0.78600
H2378       H  0.95350840  0.70633463  0.45925409     0.79600
H2379       H  0.54395820  0.79052093  0.45262299     0.81900
H2380       H  0.54606798  0.70655334  0.04421045     0.79500
H2381       H  0.87730284  0.74947544  0.48023486     0.42500
H2382       H  0.94387570  0.76416616  0.40517652     0.41500
H2383       H  0.55218209  0.73740537  0.40305953     0.41200
H2384       H  0.58864861  0.76159767  0.43936127     0.39100
H2385       H  0.59997025  0.74139161  0.04980545     0.42200
H2386       H  0.55837768  0.73274607  0.09258630     0.37000
H2387       H  0.95018182  0.75285763  0.09872899     0.43100
H2388       H  0.88394429  0.74440415  0.03897589     0.39500
H2389       H  0.61579379  0.74937229  0.45916308     0.44500
H2390       H  0.53773078  0.74641970  0.11829937     0.43200
H2391       H  0.91075633  0.73409776  0.06023775     0.43300
H2392       H  0.96608710  0.75022850  0.38088259     0.43700
O2393       O  0.79918995  0.58735595  0.99918760    -0.75200
O2394       O  0.83570212  0.55010397  0.99871967    -0.54100
C2395       C  0.82728200  0.57857692  0.99867177     0.78500
O2396       O  0.70025569  0.00072203  0.08662422    -0.59800
O2397       O  0.66406735  0.49995549  0.05123225    -0.52800
C2398       C  0.67227221  0.50264664  0.07926240     0.70600
O2399       O  0.80350532  0.00095739  0.08381976    -0.74400
O2400       O  0.83826737  0.00244719  0.04538360    -0.54900
C2401       C  0.83186294  0.50395027  0.07596191     0.76600
O2402       O  0.69550776  0.58366951  0.99925041    -0.59500
O2403       O  0.66140761  0.54422812  0.00255219    -0.52600
C2404       C  0.66800206  0.57297165  0.00100025     0.73100
Zr2405     Zr  0.74818957  0.56414213  0.99888332     2.54700
O2406       O  0.74440982  0.60532333  0.03621648    -0.80100
O2407       O  0.74531496  0.59512270  0.45128259    -0.93500
Zr2408     Zr  0.75147980  0.99975701  0.06384169     2.64700
O2409       O  0.75682010  0.54885403  0.09753302    -0.98400
O2410       O  0.75225549  0.96108912  0.10406155    -0.80500
O2411       O  0.77986973  0.53481027  0.03195395    -0.83900
O2412       O  0.72044716  0.53302299  0.03346491    -2.18600
O2413       O  0.69763604  0.49635176  0.41686974    -0.67200
O2414       O  0.66260784  0.49790695  0.45519189    -0.51800
C2415       C  0.66988454  0.99547264  0.42599481     0.71500
O2416       O  0.80374424  0.91298584  0.00137994    -0.60100
O2417       O  0.83877957  0.95182505  0.99946326    -0.52100
C2418       C  0.83160402  0.92390701  0.50347934     0.73300
O2419       O  0.70021700  0.91080358  0.00204749    -0.71500
O2420       O  0.66400382  0.94857565  0.00325519    -0.50200
C2421       C  0.67287247  0.91991420  0.50394646     0.74700
O2422       O  0.80206692  0.49534630  0.41593324    -0.66900
O2423       O  0.83734259  0.99883096  0.45368842    -0.54100
C2424       C  0.82963106  0.99703588  0.42561440     0.73100
Zr2425     Zr  0.74982713  0.49527135  0.43746759     2.77500
O2426       O  0.74929531  0.94903199  0.40571824    -0.97600
O2427       O  0.74829555  0.53433142  0.39766915    -0.78400
Zr2428     Zr  0.75162531  0.93320525  0.00232149     2.70100
O2429       O  0.75399164  0.89213368  0.46841528    -0.79700
O2430       O  0.75168014  0.89811971  0.04564657    -0.98800
Zr2431     Zr  0.80898849  0.99930878  0.99877677     2.21500
Zr2432     Zr  0.69183771  0.49784682  0.00322047     2.11100
O2433       O  0.72115833  0.96317185  0.47148814    -2.47500
O2434       O  0.78051181  0.96471093  0.47081700    -0.79500
O2435       O  0.71935895  0.52869233  0.46756034    -0.71700
O2436       O  0.78133398  0.96667787  0.03289932    -2.32600
O2437       O  0.77906383  0.53046480  0.46655664    -2.28800
O2438       O  0.72173720  0.96521145  0.03434357    -0.73400
H2439       H  0.70717983  0.54588107  0.04547481     0.78600
H2440       H  0.79501288  0.95474937  0.04539317     0.79600
H2441       H  0.70810399  0.94972493  0.45979230     0.81900
H2442       H  0.79193310  0.54258969  0.45341343     0.79500
H2443       H  0.76622457  0.94487833  0.09650577     0.42500
H2444       H  0.73616732  0.90662945  0.05970015     0.41500
H2445       H  0.75290808  0.87309807  0.48083764     0.41200
H2446       H  0.76599660  0.93598898  0.41381296     0.39100
H2447       H  0.75153611  0.52273705  0.37858891     0.42200
H2448       H  0.76276480  0.58861479  0.43851044     0.37000
H2449       H  0.76408188  0.60485614  0.04730186     0.43100
H2450       H  0.74043676  0.56288146  0.09050305     0.39500
H2451       H  0.73035786  0.93783465  0.41124625     0.44500
H2452       H  0.75063275  0.61615940  0.45810343     0.43200
H2453       H  0.75041459  0.54220673  0.11810845     0.43300
H2454       H  0.74235284  0.87891358  0.03784254     0.43700
C2455       C  0.87993020  0.85276313  0.52144928    -0.05700
C2456       C  0.90474693  0.85607793  0.00040071     0.00200
C2457       C  0.90578825  0.88234289  0.98100344    -0.08300
C2458       C  0.88165981  0.90391197  0.98231664    -0.05700
C2459       C  0.85687199  0.90085862  0.50433758     0.00200
C2460       C  0.85596021  0.87428585  0.52326575    -0.08200
C2461       C  0.83019200  0.86863254  0.54581931     0.62100
H2462       H  0.87899902  0.83204847  0.53523254     0.12800
H2463       H  0.88191180  0.92392364  0.96753667     0.12900
C2464       C  0.93143717  0.88714577  0.95815197     0.62400
F2465       F  0.83755015  0.84578597  0.56660671    -0.22800
F2466       F  0.80420900  0.85944896  0.53045109    -0.20100
F2467       F  0.82428455  0.89490116  0.06045263    -0.19800
F2468       F  0.93906443  0.86741195  0.44440121    -0.19800
F2469       F  0.95857383  0.89273706  0.97323640    -0.20200
F2470       F  0.92584946  0.91200416  0.93912786    -0.22800
C2471       C  0.87388749  0.65176677  0.48726272    -0.05700
C2472       C  0.90151097  0.64532486  0.00145194     0.00200
C2473       C  0.90613257  0.61400066  0.01016250    -0.08300
C2474       C  0.88112462  0.59356700  0.00907896    -0.05700
C2475       C  0.85198715  0.60258995  0.99878192     0.00200
C2476       C  0.84990675  0.63032719  0.48420891    -0.08200
C2477       C  0.82256309  0.63885789  0.46471373     0.62100
H2478       H  0.87213077  0.67398484  0.47611857     0.12800
H2479       H  0.88429980  0.56995660  0.01639745     0.12900
C2480       C  0.93697957  0.60157096  0.02053909     0.62400
F2481       F  0.82056869  0.67509944  0.96412838    -0.22800
F2482       F  0.79521960  0.64510516  0.99667730    -0.20100
F2483       F  0.81610099  0.61525467  0.44466185    -0.19800
F2484       F  0.93524423  0.57116321  0.03005415    -0.19800
F2485       F  0.93659954  0.62910729  0.55887326    -0.20200
F2486       F  0.95760901  0.60280500  0.99671099    -0.22800
C2487       C  0.65350073  0.87056682  0.48391239    -0.05700
C2488       C  0.64869889  0.89607785  0.50273031     0.00200
C2489       C  0.62126481  0.89810666  0.02049877    -0.08300
C2490       C  0.59889379  0.87509435  0.01742043    -0.05700
C2491       C  0.60341719  0.84981176  0.49713025     0.00200
C2492       C  0.63155024  0.84709541  0.48097992    -0.08200
C2493       C  0.63885797  0.81981466  0.46073402     0.62100
H2494       H  0.67485016  0.86912276  0.47151112     0.12800
H2495       H  0.57838444  0.87596663  0.03121949     0.12900
C2496       C  0.61598406  0.92392179  0.04298008     0.62400
F2497       F  0.66458993  0.82494754  0.44305967    -0.22800
F2498       F  0.61474790  0.81417489  0.44127265    -0.20100
F2499       F  0.64162551  0.79676006  0.97065483    -0.19800
F2500       F  0.60736223  0.95024344  0.52680901    -0.19800
F2501       F  0.64233831  0.92989971  0.05930537    -0.20200
F2502       F  0.59328049  0.91650679  0.06370073    -0.22800
C2503       C  0.59275498  0.61603941  0.51244307    -0.05700
C2504       C  0.59783768  0.64289775  0.49531595     0.00200
C2505       C  0.62423967  0.64497003  0.97943893    -0.08300
C2506       C  0.64630957  0.62157745  0.98141443    -0.05700
C2507       C  0.64239860  0.59562248  0.00012107     0.00200
C2508       C  0.61477969  0.59247577  0.01708783    -0.08200
C2509       C  0.60875054  0.56509661  0.03794942     0.62100
H2510       H  0.57183214  0.61437957  0.52551379     0.12800
H2511       H  0.66705426  0.62343151  0.96807185     0.12900
C2512       C  0.63036646  0.67162117  0.45532918     0.62400
F2513       F  0.58127823  0.56789280  0.05331031    -0.22800
F2514       F  0.60726281  0.53815264  0.02134576    -0.20100
F2515       F  0.63034291  0.55938013  0.55412731    -0.19800
F2516       F  0.63706377  0.69766934  0.97273137    -0.19800
F2517       F  0.60400194  0.67843279  0.43929849    -0.20200
F2518       F  0.65283528  0.66453766  0.43427116    -0.22800
C2519       C  0.90623955  0.50737982  0.38211272    -0.05700
C2520       C  0.89939673  0.49357588  0.35409211     0.00200
C2521       C  0.87024764  0.47952643  0.35030478    -0.08300
C2522       C  0.84796985  0.97992982  0.37504864    -0.05700
C2523       C  0.85442102  0.99579061  0.40210312     0.00200
C2524       C  0.88378543  0.00963539  0.40552268    -0.08200
C2525       C  0.89286650  0.02758931  0.43379946     0.62100
H2526       H  0.92854926  0.51779186  0.38482022     0.12800
H2527       H  0.82578519  0.96914674  0.37270990     0.12900
C2528       C  0.86172055  0.46176089  0.32178190     0.62400
F2529       F  0.92131508  0.04123936  0.43075173    -0.22800
F2530       F  0.89432580  0.00807106  0.45866840    -0.20100
F2531       F  0.87577529  0.54747423  0.44307433    -0.19800
F2532       F  0.88367369  0.93889140  0.31563394    -0.19800
F2533       F  0.85745718  0.48198330  0.29781787    -0.20200
F2534       F  0.83489630  0.44523645  0.32550106    -0.22800
C2535       C  0.65249077  0.00864008  0.37333253    -0.05700
C2536       C  0.64500393  0.99618615  0.40202045     0.00200
C2537       C  0.61461994  0.98504709  0.40638688    -0.08300
C2538       C  0.59357977  0.98632442  0.38188637    -0.05700
C2539       C  0.60118035  0.99874685  0.35322376     0.00200
C2540       C  0.63117504  0.01097977  0.34930076    -0.08200
C2541       C  0.64057889  0.02815237  0.32063509     0.62100
H2542       H  0.67542093  0.01734251  0.36989616     0.12800
H2543       H  0.57275398  0.47396489  0.38495084     0.12900
C2544       C  0.60660665  0.46851883  0.43650344     0.62400
F2545       F  0.66798615  0.04366454  0.32423234    -0.22800
F2546       F  0.61446510  0.55467097  0.31699282    -0.20100
F2547       F  0.64407928  0.00764505  0.29689516    -0.19800
F2548       F  0.60425455  0.49004044  0.45952075    -0.19800
F2549       F  0.62358570  0.94784714  0.44514261    -0.20200
F2550       F  0.57491283  0.95923679  0.43463530    -0.22800
C2551       C  0.62714573  0.00998522  0.15287657    -0.05700
C2552       C  0.59786221  0.99961627  0.14465408     0.00200
C2553       C  0.59407699  0.49125763  0.11672436    -0.08300
C2554       C  0.61818159  0.49320966  0.09544485    -0.05700
C2555       C  0.64754308  0.50404488  0.10308574     0.00200
C2556       C  0.65168990  0.01157946  0.13218009    -0.08200
C2557       C  0.68150670  0.02566343  0.14309485     0.62100
H2558       H  0.63073745  0.01735775  0.17607376     0.12800
H2559       H  0.61423379  0.48577097  0.07245833     0.12900
C2560       C  0.56387332  0.47681788  0.10683246     0.62400
F2561       F  0.67828331  0.54713856  0.16994654    -0.22800
F2562       F  0.68842777  0.55475481  0.12079832    -0.20100
F2563       F  0.70416256  0.00348265  0.14393815    -0.19800
F2564       F  0.54028765  0.49785208  0.10835265    -0.19800
F2565       F  0.55158952  0.95565042  0.11918322    -0.20200
F2566       F  0.56292077  0.97113268  0.07206496    -0.22800
C2567       C  0.90673679  0.49035473  0.11949406    -0.05700
C2568       C  0.90059868  0.50566413  0.14696654     0.00200
C2569       C  0.87292863  0.52263070  0.14970651    -0.08300
C2570       C  0.85157742  0.52155743  0.12579501    -0.05700
C2571       C  0.85713663  0.50524564  0.09880697     0.00200
C2572       C  0.88585413  0.49028925  0.09506906    -0.08200
C2573       C  0.89461816  0.47399316  0.06579332     0.62100
H2574       H  0.92817054  0.47807478  0.11737275     0.12800
H2575       H  0.83006163  0.53367536  0.12805342     0.12900
C2576       C  0.86593479  0.54252917  0.17722800     0.62400
F2577       F  0.92252433  0.45915020  0.06809034    -0.22800
F2578       F  0.89690767  0.49526638  0.04240594    -0.20100
F2579       F  0.87197042  0.94921141  0.05783579    -0.19800
F2580       F  0.89059562  0.56144984  0.18348337    -0.19800
F2581       F  0.85502822  0.01403995  0.20056688    -0.20200
F2582       F  0.83559434  0.05317037  0.17365796    -0.22800
C2583       C  0.98023808  0.59697539  0.37873323    -0.05700
C2584       C  0.00308839  0.59846326  0.35620269     0.00200
C2585       C  0.51875720  0.62400718  0.35612964    -0.08300
C2586       C  0.51812999  0.64513520  0.38029230    -0.05700
C2587       C  0.49821338  0.64174181  0.40508686     0.00200
C2588       C  0.97811421  0.61910713  0.40220925    -0.08200
C2589       C  0.95148325  0.61805768  0.42433441     0.62100
H2590       H  0.96343620  0.57869771  0.37730821     0.12800
H2591       H  0.53327001  0.66489016  0.37988445     0.12900
C2592       C  0.54154156  0.62887217  0.33049459     0.62400
F2593       F  0.93008688  0.59612765  0.41616440    -0.22800
F2594       F  0.93692384  0.64636362  0.42496562    -0.20100
F2595       F  0.96201000  0.61095088  0.45312002    -0.19800
F2596       F  0.52625571  0.63833571  0.30460776    -0.19800
F2597       F  0.55713856  0.60177346  0.32470144    -0.20200
F2598       F  0.56297596  0.65118254  0.33758928    -0.22800
C2599       C  0.52101662  0.89674313  0.37336161    -0.05700
C2600       C  0.49709405  0.89709378  0.35213282     0.00200
C2601       C  0.97461166  0.87340849  0.35433211    -0.08300
C2602       C  0.97648886  0.85161965  0.37805282    -0.05700
C2603       C  0.49909817  0.85185057  0.39856068     0.00200
C2604       C  0.52249473  0.87441975  0.39663193    -0.08200
C2605       C  0.54937036  0.87441719  0.41846483     0.62100
H2606       H  0.53874150  0.91408226  0.37140732     0.12800
H2607       H  0.95974723  0.83328273  0.37961332     0.12900
C2608       C  0.94830376  0.87171899  0.33195776     0.62400
F2609       F  0.57187503  0.89498715  0.40955654    -0.22800
F2610       F  0.56231366  0.84536696  0.41963343    -0.20100
F2611       F  0.53956360  0.88269704  0.44718134    -0.19800
F2612       F  0.95916297  0.86306709  0.30376866    -0.19800
F2613       F  0.93420398  0.90015877  0.32971700    -0.20200
F2614       F  0.92645928  0.85043050  0.34089958    -0.22800
C2615       C  0.52628115  0.85793144  0.11736161    -0.05700
C2616       C  0.00388983  0.85619585  0.09766172     0.00200
C2617       C  0.98038472  0.87869347  0.09928393    -0.08300
C2618       C  0.98104674  0.90050850  0.12305140    -0.05700
C2619       C  0.50234153  0.90033348  0.14464808     0.00200
C2620       C  0.52697772  0.87936688  0.14134559    -0.08200
C2621       C  0.55401513  0.87963630  0.16294649     0.62100
H2622       H  0.54462625  0.84135788  0.11488920     0.12800
H2623       H  0.96327975  0.91781798  0.12464479     0.12900
C2624       C  0.95415239  0.87914695  0.07669867     0.62400
F2625       F  0.57759331  0.86107076  0.15272209    -0.22800
F2626       F  0.54490366  0.86887131  0.19112465    -0.20100
F2627       F  0.56529613  0.90927458  0.16581714    -0.19800
F2628       F  0.94146600  0.85006866  0.07420832    -0.19800
F2629       F  0.96474253  0.88863717  0.04856571    -0.20200
F2630       F  0.93116376  0.89904813  0.08566645    -0.22800
C2631       C  0.97365279  0.61859815  0.14384924    -0.05700
C2632       C  0.99988311  0.60053316  0.14830293     0.00200
C2633       C  0.52384989  0.60435336  0.12668049    -0.08300
C2634       C  0.52179330  0.62668635  0.10345195    -0.05700
C2635       C  0.99843623  0.64667689  0.10245101     0.00200
C2636       C  0.97259665  0.64199342  0.12145092    -0.08200
C2637       C  0.94419081  0.66181842  0.11832794     0.62100
H2638       H  0.95407352  0.61442909  0.15838184     0.12800
H2639       H  0.53967893  0.62849888  0.08648044     0.12900
C2640       C  0.55241975  0.58477857  0.12918280     0.62400
F2641       F  0.92082930  0.65175681  0.13716147    -0.22800
F2642       F  0.93366309  0.66114822  0.08871192    -0.20100
F2643       F  0.95108515  0.69184631  0.12608114    -0.19800
F2644       F  0.54544619  0.55463718  0.12249732    -0.19800
F2645       F  0.56405266  0.58642801  0.15835868    -0.20200
F2646       F  0.57502981  0.59451315  0.10932837    -0.22800
O2647       O  0.91399570  0.50280752  0.70033930    -0.75200
O2648       O  0.95132469  0.50317707  0.66431981    -0.54100
C2649       C  0.92305344  0.50399839  0.67246051     0.78500
O2650       O  0.99847883  0.58511865  0.80506117    -0.59800
O2651       O  0.00067580  0.54588002  0.83976088    -0.52800
C2652       C  0.99989338  0.57463842  0.83253472     0.70600
O2653       O  0.99645398  0.58849430  0.70231642    -0.74400
O2654       O  0.49956887  0.55037009  0.66670572    -0.54900
C2655       C  0.99749201  0.57931509  0.67444924     0.76600
O2656       O  0.91458776  0.49605342  0.80355997    -0.59500
O2657       O  0.95137028  0.99878811  0.83771118    -0.52600
C2658       C  0.92386525  0.49607331  0.83136249     0.73100
Zr2659     Zr  0.93532816  0.49863257  0.75183606     2.54700
O2660       O  0.89575856  0.53778876  0.75593111    -0.80100
O2661       O  0.89681282  0.95964226  0.74633106    -0.93500
Zr2662     Zr  0.99797822  0.56464210  0.75303740     2.64700
O2663       O  0.95657393  0.60209702  0.75528085    -0.98400
O2664       O  0.53904763  0.60277047  0.75544395    -0.80500
O2665       O  0.96611613  0.53272570  0.72277099    -0.83900
O2666       O  0.96651957  0.53116558  0.78209196    -2.18600
O2667       O  0.49483856  0.91090632  0.79891876    -0.67200
O2668       O  0.00021649  0.94928198  0.83628008    -0.51800
C2669       C  0.49533683  0.91985594  0.82683063     0.71500
O2670       O  0.58395565  0.99899537  0.69851151    -0.60100
O2671       O  0.54719965  0.50257795  0.66474610    -0.52100
C2672       C  0.57457441  0.99991075  0.67067771     0.73300
O2673       O  0.58351325  0.99809497  0.80180364    -0.71500
O2674       O  0.54626889  0.99644787  0.83781886    -0.50200
C2675       C  0.57467508  0.99726917  0.82977667     0.74700
O2676       O  0.50218110  0.91390293  0.69632714    -0.66900
O2677       O  0.49879764  0.95307798  0.66172158    -0.54100
C2678       C  0.50111145  0.92429723  0.66885683     0.73100
Zr2679     Zr  0.49918317  0.93414356  0.74820309     2.77500
O2680       O  0.54050975  0.89656005  0.75077106    -0.97600
O2681       O  0.96321971  0.89444672  0.74356945    -0.78400
Zr2682     Zr  0.56237671  0.99965905  0.75007509     2.70100
O2683       O  0.60259493  0.96093385  0.75050450    -0.79700
O2684       O  0.59788799  0.54474508  0.74792497    -0.98800
Zr2685     Zr  0.49968745  0.50110273  0.69320704     2.21500
Zr2686     Zr  0.99979413  0.99866173  0.80970225     2.11100
O2687       O  0.53107874  0.96563364  0.77874274    -2.47500
O2688       O  0.53136073  0.96738934  0.71953474    -0.79500
O2689       O  0.96765880  0.96634800  0.77943876    -0.71700
O2690       O  0.53136619  0.53380290  0.72320750    -2.32600
O2691       O  0.96712655  0.96762349  0.72040806    -2.28800
O2692       O  0.53196151  0.53187532  0.78230260    -0.73400
H2693       H  0.95385432  0.54317214  0.79546214     0.78600
H2694       H  0.54364860  0.54700169  0.71051438     0.79600
H2695       H  0.54368539  0.95269007  0.79152748     0.81900
H2696       H  0.95462274  0.95512253  0.70695790     0.79500
H2697       H  0.52849689  0.62223934  0.76064310     0.42500
H2698       H  0.59248549  0.55763718  0.76565352     0.41500
H2699       H  0.59857380  0.94815307  0.73232839     0.41200
H2700       H  0.55723817  0.90587782  0.73868202     0.39100
H2701       H  0.94587237  0.90089188  0.75652902     0.42200
H2702       H  0.90328919  0.94359895  0.76099648     0.37000
H2703       H  0.90704306  0.55756082  0.75589134     0.43100
H2704       H  0.96690110  0.62239581  0.75480675     0.39500
H2705       H  0.54794770  0.89729369  0.77200940     0.44500
H2706       H  0.90035991  0.95017740  0.72617380     0.43200
H2707       H  0.94619461  0.60058091  0.73534165     0.43300
H2708       H  0.61840883  0.53638944  0.75257839     0.43700
O2709       O  0.99872910  0.70154472  0.58860014    -0.75200
O2710       O  0.49923874  0.66350761  0.55255178    -0.54100
C2711       C  0.99759829  0.67323159  0.58011926     0.78500
O2712       O  0.91816266  0.80388238  0.50266796    -0.59800
O2713       O  0.95687402  0.83895684  0.49976606    -0.52800
C2714       C  0.92837951  0.83180180  0.50115626     0.70600
O2715       O  0.91550721  0.69837367  0.50528741    -0.74400
O2716       O  0.95254218  0.66152541  0.50479835    -0.54900
C2717       C  0.92442143  0.66990959  0.50529940     0.76600
O2718       O  0.00721526  0.80480924  0.58451644    -0.59500
O2719       O  0.00577706  0.83951673  0.54551547    -0.52600
C2720       C  0.00657353  0.83261479  0.57398702     0.73100
Zr2721     Zr  0.00542859  0.75184730  0.56469086     2.54700
O2722       O  0.97040858  0.75731316  0.60732202    -0.80100
O2723       O  0.54417401  0.75252626  0.59961200    -0.93500
Zr2724     Zr  0.93769238  0.75079200  0.50422811     2.64700
O2725       O  0.90214313  0.75138305  0.54684761    -0.98400
O2726       O  0.89653106  0.75089493  0.96717954    -0.80500
O2727       O  0.97050925  0.72154634  0.53593974    -0.83900
O2728       O  0.97169726  0.78106990  0.53395743    -2.18600
O2729       O  0.58698505  0.79846078  0.99604947    -0.67200
O2730       O  0.55081373  0.83495943  0.49740142    -0.51800
C2731       C  0.57826795  0.82669897  0.99653035     0.71500
O2732       O  0.49588677  0.69532855  0.91649460    -0.60100
O2733       O  0.49743204  0.66012213  0.95522892    -0.52100
C2734       C  0.49634834  0.66749825  0.92686660     0.73300
O2735       O  0.49670392  0.79965954  0.91360259    -0.71500
O2736       O  0.00236138  0.83660079  0.95122104    -0.50200
C2737       C  0.49806560  0.82786722  0.92263653     0.74700
O2738       O  0.58472918  0.69595610  0.49696967    -0.66900
O2739       O  0.54641023  0.66052928  0.49993474    -0.54100
C2740       C  0.57440623  0.66791058  0.99885787     0.73100
Zr2741     Zr  0.56338595  0.74770918  0.49789871     2.77500
O2742       O  0.59301709  0.74404814  0.94985525    -0.97600
O2743       O  0.60528151  0.74792303  0.53424408    -0.78400
Zr2744     Zr  0.49620737  0.74809048  0.93634971     2.70100
O2745       O  0.53096801  0.74543362  0.89318261    -0.79700
O2746       O  0.95654290  0.74901232  0.90131688    -0.98800
Zr2747     Zr  0.49898268  0.68978863  0.50312842     2.21500
Zr2748     Zr  0.00361017  0.80876149  0.49937298     2.11100
O2749       O  0.53105606  0.77808767  0.96527303    -2.47500
O2750       O  0.52986041  0.71804487  0.96671316    -0.79500
O2751       O  0.53384608  0.77983289  0.53034623    -0.71700
O2752       O  0.96802290  0.71959792  0.97042548    -2.32600
O2753       O  0.53294330  0.71989648  0.53322071    -2.28800
O2754       O  0.96884598  0.77938781  0.96938543    -0.73400
H2755       H  0.96005831  0.79507213  0.54658408     0.78600
H2756       H  0.95468400  0.70647525  0.95851766     0.79600
H2757       H  0.54317887  0.79092935  0.95199716     0.81900
H2758       H  0.54567048  0.70700027  0.54579597     0.79500
H2759       H  0.87823926  0.75622427  0.97934541     0.42500
H2760       H  0.94403467  0.76697846  0.90740343     0.41500
H2761       H  0.54663663  0.73016979  0.89932346     0.41200
H2762       H  0.58634158  0.76154658  0.93701321     0.39100
H2763       H  0.59643573  0.75725518  0.55278061     0.42200
H2764       H  0.53509568  0.75985339  0.61891122     0.37000
H2765       H  0.95064086  0.76297307  0.59791451     0.43100
H2766       H  0.91020894  0.73567799  0.56112377     0.39500
H2767       H  0.61417089  0.74924823  0.95577514     0.44500
H2768       H  0.55718100  0.76986094  0.59268650     0.43200
H2769       H  0.90589364  0.77129427  0.55711402     0.43300
H2770       H  0.96572429  0.75510075  0.88160253     0.43700
O2771       O  0.79964617  0.58622443  0.49828475    -0.75200
O2772       O  0.83620151  0.54881957  0.49856531    -0.54100
C2773       C  0.82773930  0.57728055  0.49831610     0.78500
O2774       O  0.70027110  0.00200643  0.58804369    -0.59800
O2775       O  0.66405359  0.50143101  0.55120903    -0.52800
C2776       C  0.67217932  0.50418937  0.57931942     0.70600
O2777       O  0.80333655  0.00202435  0.58597702    -0.74400
O2778       O  0.83808510  0.00341918  0.54754414    -0.54900
C2779       C  0.83114031  0.50466600  0.57588599     0.76600
O2780       O  0.69551319  0.58304210  0.49771873    -0.59500
O2781       O  0.66095377  0.54390815  0.50024428    -0.52600
C2782       C  0.66784265  0.57256775  0.49878864     0.73100
Zr2783     Zr  0.74839192  0.56343429  0.49698006     2.54700
O2784       O  0.74731460  0.60854053  0.52964896    -0.80100
O2785       O  0.74490307  0.59946068  0.95592580    -0.93500
Zr2786     Zr  0.75132924  0.00159798  0.56537022     2.64700
O2787       O  0.75644500  0.54666618  0.59929792    -0.98400
O2788       O  0.75102518  0.96467700  0.60720360    -0.80500
O2789       O  0.77933617  0.53415000  0.53082729    -0.83900
O2790       O  0.72047644  0.53315341  0.53235889    -2.18600
O2791       O  0.69750688  0.49645470  0.91804500    -0.67200
O2792       O  0.66233913  0.49720245  0.95606477    -0.51800
C2793       C  0.66858362  0.99501421  0.92609643     0.71500
O2794       O  0.80400857  0.91363444  0.50439059    -0.60100
O2795       O  0.83877437  0.95268113  0.50175872    -0.52100
C2796       C  0.83140580  0.92308347  0.00084572     0.73300
O2797       O  0.70089740  0.91070156  0.50455928    -0.71500
O2798       O  0.66438359  0.94824411  0.50344579    -0.50200
C2799       C  0.67225927  0.92022479  0.00287583     0.74700
O2800       O  0.80195494  0.49653210  0.91640603    -0.66900
O2801       O  0.83714593  0.00016116  0.95150093    -0.54100
C2802       C  0.82921038  0.99913986  0.92344049     0.73100
Zr2803     Zr  0.74981800  0.49649757  0.93823085     2.77500
O2804       O  0.74955413  0.95291226  0.89996004    -0.97600
O2805       O  0.74780882  0.53533663  0.89819637    -0.78400
Zr2806     Zr  0.75191477  0.93382917  0.50521738     2.70100
O2807       O  0.75359142  0.89021177  0.96693470    -0.79700
O2808       O  0.75325133  0.89961628  0.54923399    -0.98800
Zr2809     Zr  0.80893399  0.00009033  0.50082453     2.21500
Zr2810     Zr  0.69134369  0.49777063  0.50269526     2.11100
O2811       O  0.72088643  0.96336384  0.96926652    -2.47500
O2812       O  0.78017055  0.96456143  0.96811554    -0.79500
O2813       O  0.71937909  0.52970327  0.96863379    -0.71700
O2814       O  0.78134182  0.96794770  0.53532780    -2.32600
O2815       O  0.77870983  0.53168694  0.96766811    -2.28800
O2816       O  0.72167674  0.96648129  0.53623748    -0.73400
H2817       H  0.70741181  0.54633793  0.54423135     0.78600
H2818       H  0.79496209  0.95623308  0.54809580     0.79600
H2819       H  0.70771219  0.95011408  0.95740683     0.81900
H2820       H  0.79135564  0.54408063  0.95451755     0.79500
H2821       H  0.75942127  0.97617052  0.62472829     0.42500
H2822       H  0.73864668  0.90877542  0.56384445     0.41500
H2823       H  0.73967155  0.89621678  0.95020345     0.41200
H2824       H  0.72845456  0.94466120  0.90029342     0.39100
H2825       H  0.75403180  0.52430217  0.87952566     0.42200
H2826       H  0.76214396  0.59372848  0.94251760     0.37000
H2827       H  0.74829104  0.60003923  0.55053293     0.43100
H2828       H  0.73976262  0.56084045  0.59338101     0.39500
H2829       H  0.75157455  0.96283718  0.87975524     0.44500
H2830       H  0.75048474  0.61983499  0.96431047     0.43200
H2831       H  0.75056910  0.53871821  0.61958200     0.43300
H2832       H  0.74320603  0.88042816  0.54234086     0.43700
C2833       C  0.88002258  0.85258042  0.02045178    -0.05700
C2834       C  0.90526540  0.85713262  0.50225786     0.00200
C2835       C  0.90713033  0.88468673  0.48467777    -0.08300
C2836       C  0.88267194  0.90589698  0.48592860    -0.05700
C2837       C  0.85647939  0.89984742  0.00177840     0.00200
C2838       C  0.85582958  0.87387730  0.02155468    -0.08200
C2839       C  0.82989419  0.86840823  0.04394195     0.62100
H2840       H  0.87965701  0.83257637  0.03524540     0.12800
H2841       H  0.88331921  0.92659817  0.47212211     0.12900
C2842       C  0.93423307  0.89166152  0.46413419     0.62400
F2843       F  0.83663042  0.84506958  0.06441107    -0.22800
F2844       F  0.80383771  0.85991778  0.02832622    -0.20100
F2845       F  0.82414593  0.89522745  0.56204183    -0.19800
F2846       F  0.93450655  0.86121468  0.94019716    -0.19800
F2847       F  0.96010735  0.89631012  0.48153776    -0.20200
F2848       F  0.92961770  0.91799069  0.44684914    -0.22800
C2849       C  0.87256758  0.65420145  0.99070462    -0.05700
C2850       C  0.90039978  0.64533086  0.50412773     0.00200
C2851       C  0.90313956  0.61591780  0.51842364    -0.08300
C2852       C  0.87897208  0.59459686  0.51556402    -0.05700
C2853       C  0.85226021  0.60130558  0.49912071     0.00200
C2854       C  0.84783948  0.63358756  0.98877337    -0.08200
C2855       C  0.81810899  0.64520272  0.97499921     0.62100
H2856       H  0.86944705  0.67778564  0.98327753     0.12800
H2857       H  0.88064192  0.57232024  0.52660421     0.12900
C2858       C  0.93083549  0.60683569  0.53727921     0.62400
F2859       F  0.82784055  0.66521883  0.44767328    -0.22800
F2860       F  0.79757761  0.64430451  0.48318282    -0.20100
F2861       F  0.81008982  0.62667239  0.95078330    -0.19800
F2862       F  0.92644812  0.57913067  0.55242932    -0.19800
F2863       F  0.94781130  0.61864997  0.04469424    -0.20200
F2864       F  0.95606333  0.60349299  0.51866565    -0.22800
C2865       C  0.65142251  0.87221518  0.98170722    -0.05700
C2866       C  0.64786710  0.89663629  0.00211231     0.00200
C2867       C  0.62121051  0.89820419  0.51959985    -0.08300
C2868       C  0.59871009  0.87546103  0.51581211    -0.05700
C2869       C  0.60246025  0.85058813  0.99703188     0.00200
C2870       C  0.62912972  0.84916819  0.97859189    -0.08200
C2871       C  0.63442811  0.82374249  0.95557100     0.62100
H2872       H  0.67192762  0.87147643  0.96790513     0.12800
H2873       H  0.57738057  0.87719595  0.52822424     0.12900
C2874       C  0.61567911  0.92374344  0.54226669     0.62400
F2875       F  0.65831558  0.83065609  0.93601966    -0.22800
F2876       F  0.60860079  0.81939505  0.93807066    -0.20100
F2877       F  0.64441140  0.79417536  0.47860799    -0.19800
F2878       F  0.60715776  0.95003233  0.02717072    -0.19800
F2879       F  0.64174048  0.92917837  0.55923893    -0.20200
F2880       F  0.59260599  0.91595583  0.56240520    -0.22800
C2881       C  0.59293018  0.61637564  0.01557963    -0.05700
C2882       C  0.59761551  0.64289204  0.99779071     0.00200
C2883       C  0.62469096  0.64506473  0.47720096    -0.08300
C2884       C  0.64669224  0.62156015  0.47924825    -0.05700
C2885       C  0.64234097  0.59532342  0.49747381     0.00200
C2886       C  0.61430561  0.59193607  0.51368854    -0.08200
C2887       C  0.60723248  0.56380597  0.53317593     0.62100
H2888       H  0.57220779  0.61493373  0.02899417     0.12800
H2889       H  0.66772955  0.62357745  0.46638367     0.12900
C2890       C  0.62923591  0.67125564  0.95710212     0.62400
F2891       F  0.58009940  0.56702996  0.54908355    -0.22800
F2892       F  0.60441698  0.53800457  0.51501456    -0.20100
F2893       F  0.63184293  0.56296057  0.05929617    -0.19800
F2894       F  0.63984761  0.69719105  0.47140646    -0.19800
F2895       F  0.60289703  0.67630011  0.94039729    -0.20200
F2896       F  0.65253707  0.66489111  0.93675989    -0.22800
C2897       C  0.90428008  0.51375536  0.88170923    -0.05700
C2898       C  0.90003791  0.49530032  0.85582415     0.00200
C2899       C  0.87315670  0.47696763  0.85380143    -0.08300
C2900       C  0.85151713  0.97893826  0.87588845    -0.05700
C2901       C  0.85396617  0.99966054  0.90014442     0.00200
C2902       C  0.87948577  0.02002818  0.90126888    -0.08200
C2903       C  0.88297388  0.04399668  0.92621619     0.62100
H2904       H  0.92494200  0.52741694  0.88316451     0.12800
H2905       H  0.83193316  0.96367592  0.87527303     0.12900
C2906       C  0.86776932  0.45496243  0.82756214     0.62400
F2907       F  0.90731417  0.06366865  0.92073947    -0.22800
F2908       F  0.88818625  0.02960508  0.95380428    -0.20100
F2909       F  0.86355715  0.55494822  0.93750639    -0.19800
F2910       F  0.89573219  0.93913949  0.82109148    -0.19800
F2911       F  0.86146632  0.47148161  0.80140268    -0.20200
F2912       F  0.84328117  0.43550127  0.83300574    -0.22800
C2913       C  0.65044161  0.00721984  0.87371760    -0.05700
C2914       C  0.64327755  0.99527331  0.90263025     0.00200
C2915       C  0.61285934  0.98436229  0.90765732    -0.08300
C2916       C  0.59155386  0.98520811  0.88331370    -0.05700
C2917       C  0.59893276  0.99709465  0.85432866     0.00200
C2918       C  0.62897529  0.00908790  0.84986844    -0.08200
C2919       C  0.63839630  0.02550757  0.82073976     0.62100
H2920       H  0.67332046  0.01589979  0.86994298     0.12800
H2921       H  0.56966639  0.48183384  0.88770630     0.12900
C2922       C  0.60229349  0.47739863  0.93956915     0.62400
F2923       F  0.66651394  0.03986731  0.82335720    -0.22800
F2924       F  0.62566468  0.54789011  0.81240856    -0.20100
F2925       F  0.64052707  0.00463020  0.79713634    -0.19800
F2926       F  0.60395773  0.50119945  0.96033477    -0.19800
F2927       F  0.62158231  0.94740614  0.94681245    -0.20200
F2928       F  0.57302252  0.96008940  0.93715388    -0.22800
C2929       C  0.62726228  0.01277397  0.65384321    -0.05700
C2930       C  0.59840168  0.00091573  0.64610208     0.00200
C2931       C  0.59433234  0.49157708  0.61712253    -0.08300
C2932       C  0.61832928  0.49406825  0.59576607    -0.05700
C2933       C  0.64732500  0.50590372  0.60312944     0.00200
C2934       C  0.65171436  0.01432535  0.63300954    -0.08200
C2935       C  0.68122398  0.02964404  0.64326157     0.62100
H2936       H  0.63056668  0.02122429  0.67672814     0.12800
H2937       H  0.61469131  0.48603937  0.57297339     0.12900
C2938       C  0.56520885  0.47478669  0.60784865     0.62400
F2939       F  0.67724668  0.55060027  0.66929427    -0.22800
F2940       F  0.68812227  0.55686620  0.62011014    -0.20100
F2941       F  0.70439263  0.00807578  0.64522253    -0.19800
F2942       F  0.54027511  0.49417928  0.60886694    -0.19800
F2943       F  0.55490076  0.95302758  0.62323466    -0.20200
F2944       F  0.56451847  0.96725810  0.57531546    -0.22800
C2945       C  0.90657629  0.49288464  0.61937063    -0.05700
C2946       C  0.89943696  0.50583773  0.64780985     0.00200
C2947       C  0.87051819  0.52035896  0.65155125    -0.08300
C2948       C  0.84958518  0.52002134  0.62718839    -0.05700
C2949       C  0.85626246  0.50608020  0.59909816     0.00200
C2950       C  0.88576783  0.49290109  0.59484385    -0.08200
C2951       C  0.89541736  0.47825482  0.56497008     0.62100
H2952       H  0.92873207  0.48215404  0.61658950     0.12800
H2953       H  0.82734808  0.53054262  0.63012453     0.12900
C2954       C  0.86138035  0.53632664  0.68092566     0.62400
F2955       F  0.92428791  0.46537432  0.56663484    -0.22800
F2956       F  0.89617645  0.50037865  0.54226864    -0.20100
F2957       F  0.87525481  0.95352335  0.55818625    -0.19800
F2958       F  0.88416041  0.55644617  0.68994045    -0.19800
F2959       F  0.85583018  0.01621119  0.70247004    -0.20200
F2960       F  0.83441794  0.05445686  0.67583168    -0.22800
C2961       C  0.97491853  0.61797410  0.85926584    -0.05700
C2962       C  0.99971440  0.59754440  0.85757605     0.00200
C2963       C  0.52383794  0.60002353  0.87946264    -0.08300
C2964       C  0.52210605  0.62359793  0.90144503    -0.05700
C2965       C  0.49601694  0.64219121  0.90430802     0.00200
C2966       C  0.97298986  0.64059155  0.88209695    -0.08200
C2967       C  0.94463914  0.66060900  0.88434245     0.62100
H2968       H  0.95684172  0.61588452  0.84257815     0.12800
H2969       H  0.54120378  0.62783374  0.91652971     0.12900
C2970       C  0.55209627  0.57981657  0.87768220     0.62400
F2971       F  0.92166932  0.65052248  0.86516416    -0.22800
F2972       F  0.95173645  0.69057912  0.87644972    -0.20100
F2973       F  0.93343102  0.65990624  0.91377334    -0.19800
F2974       F  0.56398910  0.58046413  0.84853607    -0.19800
F2975       F  0.54438916  0.54985821  0.88523304    -0.20200
F2976       F  0.57469164  0.58948349  0.89751372    -0.22800
C2977       C  0.51697381  0.89832921  0.87412209    -0.05700
C2978       C  0.49491659  0.89599430  0.85109647     0.00200
C2979       C  0.97850611  0.87118869  0.85107513    -0.08300
C2980       C  0.97929067  0.84987220  0.87530343    -0.05700
C2981       C  0.49734853  0.85222686  0.89892407     0.00200
C2982       C  0.51869645  0.87680316  0.89803844    -0.08200
C2983       C  0.54397014  0.87970462  0.92145849     0.62100
H2984       H  0.53321040  0.91715912  0.87301018     0.12800
H2985       H  0.96357799  0.83057933  0.87557750     0.12900
C2986       C  0.95577453  0.86649998  0.82543296     0.62400
F2987       F  0.56505205  0.90207903  0.91345875    -0.22800
F2988       F  0.55936686  0.85204377  0.92395753    -0.20100
F2989       F  0.53169430  0.88751161  0.94936203    -0.19800
F2990       F  0.97122156  0.85856462  0.79916882    -0.19800
F2991       F  0.93936249  0.89326810  0.82054138    -0.20200
F2992       F  0.93513671  0.84318864  0.83187692    -0.22800
C2993       C  0.52318043  0.85630945  0.61826292    -0.05700
C2994       C  0.00640282  0.85828676  0.59652704     0.00200
C2995       C  0.98336214  0.88135810  0.59692131    -0.08300
C2996       C  0.98350596  0.90354354  0.62040910    -0.05700
C2997       C  0.50207143  0.90135108  0.64367958     0.00200
C2998       C  0.52426111  0.87747766  0.64238449    -0.08200
C2999       C  0.54919632  0.87409020  0.66615459     0.62100
H3000       H  0.53976309  0.83780165  0.61716626     0.12800
H3001       H  0.96593751  0.92111271  0.62115474     0.12900
C3002       C  0.95781223  0.88158343  0.57356618     0.62400
F3003       F  0.57151467  0.85338408  0.65715578    -0.22800
F3004       F  0.53663953  0.86337561  0.69302198    -0.20100
F3005       F  0.56326172  0.90217105  0.67109489    -0.19800
F3006       F  0.94342309  0.85319185  0.57322201    -0.19800
F3007       F  0.96963874  0.88788605  0.54508719    -0.20200
F3008       F  0.93596296  0.90366261  0.57995876    -0.22800
C3009       C  0.97327366  0.62441196  0.64862358    -0.05700
C3010       C  0.99763593  0.60333096  0.65018349     0.00200
C3011       C  0.52128440  0.60355401  0.62788882    -0.08300
C3012       C  0.51948075  0.62612603  0.60482232    -0.05700
C3013       C  0.99615427  0.64944861  0.60437110     0.00200
C3014       C  0.97252311  0.64813350  0.62651051    -0.08200
C3015       C  0.94744297  0.67231887  0.62772143     0.62100
H3016       H  0.95520746  0.62260921  0.66539136     0.12800
H3017       H  0.53625265  0.62633751  0.58667603     0.12900
C3018       C  0.54788347  0.58113863  0.62785022     0.62400
F3019       F  0.92412761  0.66383378  0.64734359    -0.22800
F3020       F  0.93482020  0.67692980  0.59925202    -0.20100
F3021       F  0.95968458  0.69974914  0.63794498    -0.19800
F3022       F  0.53808814  0.55319734  0.61668569    -0.19800
F3023       F  0.55926394  0.57714126  0.65694519    -0.20200
F3024       F  0.57166890  0.59160667  0.60980485    -0.22800
loop_ 
_geom_bond_atom_site_label_1 
_geom_bond_atom_site_label_2 
_geom_bond_distance 
_geom_bond_site_symmetry_2 
_ccdc_geom_bond_type 
O1          Zr13   2.456   1_545  S
O1            C3   1.289       .  A
O2        Zr1551   2.426   1_545  S
O2            C3   1.288       .  A
C3          C300   1.498       .  S
O4          Zr16   2.464       .  S
O4            C6   1.292       .  A
O5         Zr796   2.443   1_545  S
O5            C6   1.290       .  A
C6          C316   1.496       .  S
O7          Zr16   2.463       .  S
O7            C9   1.291       .  A
O8          Zr39   2.435       .  S
O8         C1521   1.288       .  A
C9         O1520   1.286       .  A
C9          C364   1.484       .  S
O10         Zr13   2.448       .  S
O10          C12   1.287       .  A
O11         Zr40   2.448       .  S
O11         C768   1.292       .  A
C12         O767   1.293       .  A
C12         C252   1.507       .  S
Zr13         O14   2.431   1_565  S
Zr13        O771   2.436       .  S
Zr13         O19   2.371   1_565  S
Zr13         O20   2.375   1_565  S
Zr13        O799   2.373       .  S
Zr13        O801   2.371       .  S
O14          H57   0.989       .  S
O15        Zr769   2.435       .  S
O15          H56   0.990       .  S
O15          H60   0.990       .  S
Zr16         O17   2.433       .  S
Zr16       O1530   2.433       .  S
Zr16         O20   2.372       .  S
Zr16         O19   2.373       .  S
Zr16       O1556   2.375       .  S
Zr16       O1558   2.382       .  S
O17          H58   0.990       .  S
O17          H61   0.990       .  S
O18       Zr1528   2.433   1_455  S
O18          H51   0.990       .  S
O19       Zr1551   2.382   1_545  S
O20        Zr796   2.391   1_545  S
O20          H47   0.962       .  S
O21         Zr33   2.451       .  S
O21          C23   1.289       .  A
O22         Zr40   2.431       .  S
O22        C1535   1.288       .  A
C23        O1534   1.290       .  A
C23         C332   1.488       .  S
O24         Zr36   2.458       .  S
O24          C26   1.293       .  A
O25         Zr39   2.424   1_455  S
O25         C782   1.284   1_545  A
C26         O781   1.285       .  A
C26         C284   1.505       .  S
O27         Zr36   2.465       .  S
O27          C29   1.292       .  A
O28       Zr1552   2.445   1_455  S
O28          C29   1.292       .  A
C29         C271   1.512       .  S
O30         Zr33   2.455   1_455  S
O30          C32   1.290       .  A
O31        Zr795   2.445   1_455  S
O31          C32   1.290       .  A
C32         C351   1.491       .  S
Zr33         O34   2.435   1_655  S
Zr33       O1547   2.435       .  S
Zr33         O41   2.378   1_655  S
Zr33         O42   2.375   1_655  S
Zr33       O1557   2.372       .  S
Zr33       O1555   2.372       .  S
O34          H54   0.990       .  S
O34          H59   0.990       .  S
O35       Zr1545   2.434       .  S
O35          H55   0.990       .  S
Zr36         O37   2.434       .  S
Zr36        O794   2.432       .  S
Zr36         O42   2.377       .  S
Zr36         O41   2.374       .  S
Zr36        O802   2.374       .  S
Zr36        O800   2.369       .  S
O37          H53   0.990       .  S
O38        Zr792   2.434       .  S
O38          H52   0.990       .  S
O38          H62   0.990       .  S
Zr39       O1514   2.430       .  S
Zr39        O787   2.446   1_545  S
Zr39         O44   2.390   1_655  S
Zr39       O1531   2.388       .  S
Zr39        O798   2.382   1_645  S
Zr39       O2313   2.384   1_545  S
Zr40        O761   2.435       .  S
Zr40       O1540   2.454       .  S
Zr40         O43   2.386       .  S
Zr40        O776   2.392       .  S
Zr40       O1553   2.389       .  S
Zr40       O2314   2.389       .  S
O41       Zr1552   2.388   1_455  S
O41          H49   0.967       .  S
O42        Zr795   2.384   1_455  S
O43        Zr769   2.371       .  S
O43       Zr1545   2.375       .  S
O44       Zr1528   2.377   1_455  S
O44        Zr792   2.368       .  S
O44          H48   0.961       .  S
O45        Zr769   2.370       .  S
O45       Zr1545   2.376       .  S
O45       Zr2307   2.381       .  S
O45          H50   0.972       .  S
O46       Zr1528   2.376   1_455  S
O46        Zr792   2.375       .  S
O46       Zr2308   2.387   1_445  S
O63         Zr75   2.442       .  S
O63          C65   1.288       .  A
O64        Zr101   2.438       .  S
O64        C1577   1.289   1_455  A
C65        O1576   1.290       .  A
C65         C367   1.479       .  S
O66         Zr78   2.446       .  S
O66          C68   1.290       .  A
O67        Zr102   2.432       .  S
O67          C68   1.287       .  A
C68         C188   1.486       .  S
O69         Zr78   2.451       .  S
O69          C71   1.292       .  A
O70       Zr1613   2.417       .  S
O70          C71   1.283       .  A
C71         C204   1.502       .  S
O72         Zr75   2.466       .  S
O72          C74   1.292       .  A
O73        Zr102   2.434       .  S
O73          C74   1.287       .  A
C74         C348   1.493       .  S
Zr75         O76   2.433       .  S
Zr75       O1589   2.435       .  S
Zr75         O81   2.382       .  S
Zr75         O82   2.367       .  S
Zr75       O1617   2.369       .  S
Zr75       O1619   2.377       .  S
O76         H119   0.990       .  S
O77       Zr1587   2.435       .  S
O77         H118   0.990       .  S
O77         H122   0.990       .  S
Zr78         O79   2.436       .  S
Zr78        O458   2.433   1_554  S
Zr78         O82   2.373       .  S
Zr78         O81   2.372       .  S
Zr78        O484   2.368   1_554  S
Zr78        O486   2.372   1_554  S
O79         H120   0.990       .  S
O79         H123   0.990       .  S
O80        Zr456   2.433       .  S
O80         H113   0.990       .  S
O81       Zr1613   2.393       .  S
O82        Zr102   2.386       .  S
O82         H109   0.971       .  S
O83        Zr473   2.428       .  S
O83          C85   1.284       .  A
O84       Zr1614   2.430       .  S
O84         C463   1.289   1_554  A
C85         O462   1.291       .  A
C85         C223   1.482       .  S
O86         Zr98   2.462   1_455  S
O86          C88   1.292   1_455  A
O87        Zr479   2.446       .  S
O87          C88   1.290       .  A
C88         C319   1.494       .  S
O89         Zr98   2.453       .  S
O89          C91   1.291   1_655  A
O90        Zr480   2.423       .  S
O90        C1603   1.285       .  A
C91        O1602   1.285       .  A
C91         C335   1.481   1_455  S
O92         Zr95   2.436       .  S
O92         C472   1.287       .  A
O93        Zr101   2.421   1_556  S
O93         C472   1.287       .  A
C94         O470   1.285       .  A
C94         O471   1.287       .  A
C94         C236   1.481       .  S
Zr95        O461   2.433       .  S
Zr95         O97   2.434   1_556  S
Zr95        O474   2.432       .  S
Zr95        O107   2.371   1_556  S
Zr95        O105   2.376   1_556  S
Zr95        O481   2.370       .  S
Zr95        O482   2.364       .  S
O96        Zr473   2.433       .  S
O96         H116   0.988       .  S
O96         H121   0.988       .  S
O97         H117   0.990       .  S
Zr98         O99   2.434   1_655  S
Zr98       O1612   2.436       .  S
Zr98        O104   2.368   1_655  S
Zr98        O103   2.373   1_655  S
Zr98       O1620   2.375       .  S
Zr98       O1618   2.369       .  S
O99         H115   0.990       .  S
O100      Zr1610   2.435       .  S
O100        H114   0.990       .  S
O100        H124   0.990       .  S
Zr101      O1582   2.418   1_455  S
Zr101       O465   2.446   1_554  S
Zr101       O107   2.389       .  S
Zr101      O1593   2.385   1_455  S
Zr101       O482   2.373   1_554  S
Zr101      O1996   2.385   1_454  S
Zr102      O1596   2.434   1_554  S
Zr102       O468   2.425   1_554  S
Zr102      O1993   2.386   1_554  S
Zr102      O1617   2.383       .  S
Zr102       O486   2.383   1_554  S
O103       Zr473   2.366       .  S
O103      Zr1992   2.383       .  S
O103        H111   0.962       .  S
O104       Zr473   2.364       .  S
O104       Zr479   2.376   1_455  S
O105      Zr1587   2.365       .  S
O105      Zr1614   2.382       .  S
O106       Zr456   2.371       .  S
O106      Zr1610   2.375       .  S
O106      Zr1991   2.391       .  S
O106        H110   0.969       .  S
O107      Zr1587   2.375       .  S
O107        H112   0.962       .  S
O108       Zr456   2.380       .  S
O108      Zr1610   2.373       .  S
O108       Zr480   2.391       .  S
O125       Zr137   2.444       .  S
O125        C127   1.286       .  A
O126       Zr919   2.431       .  S
O126        C127   1.290       .  A
C127        C207   1.506       .  S
O128       Zr140   2.450       .  S
O128        C886   1.288       .  A
O129       Zr164   2.449       .  S
O129        C130   1.292   1_565  A
C130        O884   1.290       .  A
C130        C287   1.516       .  S
O131       Zr140   2.448       .  S
O131        C889   1.291       .  A
O132       Zr163   2.434       .  S
O132        C889   1.286       .  A
C133        O887   1.292       .  A
C133        O888   1.285       .  A
C133        C303   1.499       .  S
O134       Zr137   2.448       .  S
O134        C136   1.290       .  A
O135       Zr164   2.400   1_545  S
O135        C136   1.280   1_554  A
C136        C239   1.478       .  S
Zr137       O138   2.434   1_556  S
Zr137       O517   2.434       .  S
Zr137       O143   2.374   1_556  S
Zr137       O144   2.366   1_556  S
Zr137       O545   2.365       .  S
Zr137       O547   2.378       .  S
O138        H181   0.990       .  S
O139       Zr515   2.435       .  S
O139        H180   0.989       .  S
O139        H184   0.990       .  S
Zr140       O142   2.432       .  S
Zr140       O897   2.435       .  S
Zr140       O168   2.371       .  S
Zr140       O170   2.375       .  S
Zr140       O900   2.369       .  S
Zr140       O899   2.364       .  S
O141       Zr896   2.434       .  S
O141        H182   0.990       .  S
O141        H185   0.989       .  S
O142        H175   0.990       .  S
O143       Zr896   2.369       .  S
O143       Zr919   2.381   1_554  S
O144       Zr164   2.379   1_545  S
O144       Zr896   2.370       .  S
O144        H171   0.964       .  S
O145       Zr157   2.469       .  S
O145        C903   1.296       .  A
O146       Zr542   2.440       .  S
O146        C903   1.288       .  A
C147        O901   1.296       .  A
C147        O902   1.288       .  A
C147        C268   1.512       .  S
O148       Zr160   2.443       .  S
O148        C528   1.288       .  A
O149       Zr163   2.438       .  S
O149        C528   1.289       .  A
C150        O526   1.289       .  A
C150        O527   1.288       .  A
C150        C191   1.487       .  S
O151       Zr160   2.445       .  S
O151        C531   1.289       .  A
O152       Zr920   2.413       .  S
O152        C531   1.283       .  A
C153        O529   1.290       .  A
C153        O530   1.283       .  A
C153        C220   1.479       .  S
O154       Zr157   2.475       .  S
O154        C912   1.296       .  A
O155       Zr541   2.421       .  S
O155        C156   1.283       .  A
C156        O910   1.295       .  A
C156        C255   1.509       .  S
Zr157       O159   2.433   1_565  S
Zr157       O914   2.435       .  S
Zr157       O169   2.373   1_565  S
Zr157       O167   2.374   1_565  S
Zr157       O921   2.377       .  S
Zr157       O922   2.373       .  S
O158       Zr913   2.438       .  S
O158        H178   0.990       .  S
O158        H183   0.990       .  S
O159        H179   0.990       .  S
Zr160       O162   2.434       .  S
Zr160       O539   2.434   1_554  S
Zr160       O170   2.370       .  S
Zr160       O168   2.370       .  S
Zr160       O544   2.374   1_554  S
Zr160       O543   2.373   1_554  S
O161       Zr538   2.434       .  S
O161        H177   0.990       .  S
O162        H176   0.990       .  S
O162        H186   0.990       .  S
Zr163       O882   2.431   1_554  S
Zr163       O533   2.416   1_554  S
Zr163       O168   2.381       .  S
Zr163       O899   2.377       .  S
Zr163       O544   2.381   1_554  S
Zr163      O1303   2.392   1_554  S
Zr164       O524   2.435   1_554  S
Zr164       O908   2.403       .  S
Zr164      O1299   2.388   1_554  S
Zr164       O545   2.382   1_564  S
Zr164       O926   2.381       .  S
O165       Zr913   2.370       .  S
O165       Zr538   2.374       .  S
O165      Zr1298   2.386       .  S
O165        H173   0.967       .  S
O166       Zr913   2.375       .  S
O166       Zr538   2.377       .  S
O166       Zr541   2.382       .  S
O167       Zr515   2.366       .  S
O167       Zr542   2.382   1_545  S
O168        H172   0.962       .  S
O169       Zr515   2.376       .  S
O169      Zr1297   2.388       .  S
O169        H174   0.962       .  S
O170       Zr920   2.379       .  S
C187        C192   1.407       .  A
C187        C566   1.404       .  A
C187        H194   1.084       .  S
C188        C189   1.419   1_554  A
C188        C565   1.403       .  A
C189        C190   1.411       .  A
C189        C196   1.519       .  S
C190        C569   1.405   1_556  A
C190        H195   1.083       .  S
C191        C192   1.419       .  A
C191        C568   1.405       .  A
C192        C193   1.519       .  S
C193        F197   1.385       .  S
C193        F198   1.382       .  S
C193        F577   1.384       .  S
C196        F201   1.382       .  S
C196        F202   1.385       .  S
C196        F578   1.384       .  S
F199        C571   1.383       .  S
F200        C574   1.383       .  S
C203        C208   1.405       .  A
C203        C582   1.405       .  A
C203        H210   1.083       .  S
C204        C205   1.425       .  A
C204        C581   1.407   1_554  A
C205        C206   1.409       .  A
C205        C212   1.523       .  S
C206        C207   1.410   1_554  A
C206        H211   1.081       .  S
C207        C586   1.428       .  A
C208        C585   1.420       .  A
C208        C209   1.520       .  S
C209        F215   1.383       .  S
C209        F591   1.384       .  S
C209        F592   1.382       .  S
C212        F216   1.385       .  S
C212        F218   1.384   1_554  S
C212        F595   1.382       .  S
F213        C587   1.385       .  S
F214        C587   1.382   1_554  S
F217        C590   1.382       .  S
C219        C220   1.401       .  A
C219        C224   1.405       .  A
C219        H226   1.083       .  S
C220        C599   1.417       .  A
C221        C222   1.405       .  A
C221        C598   1.417       .  A
C221        C228   1.513       .  S
C222        C601   1.402   1_554  A
C222        H227   1.083       .  S
C223        C224   1.422       .  A
C223        C600   1.401       .  A
C224        C225   1.517       .  S
C225        F229   1.385       .  S
C225        F230   1.380       .  S
C225        F609   1.380       .  S
C228        F233   1.384       .  S
C228        F234   1.384       .  S
C228        F610   1.382       .  S
F231        C603   1.381       .  S
F232        C606   1.382       .  S
C235        C236   1.404       .  A
C235        C618   1.408       .  A
C235        H242   1.083       .  S
C236        C615   1.420       .  A
C237        C238   1.401       .  A
C237        C614   1.418       .  A
C237        C622   1.517       .  S
C238        C239   1.400       .  A
C238        H243   1.084       .  S
C239        C240   1.422   1_556  A
C240        C613   1.407       .  A
C240        C241   1.521       .  S
C241        F245   1.385       .  S
C241        F246   1.382       .  S
C241        F625   1.383       .  S
C244        C615   1.518       .  S
C244        F249   1.384       .  S
C244        F250   1.385       .  S
C244        F626   1.381       .  S
F247        C619   1.383       .  S
F248        C622   1.381       .  S
C251        C252   1.408   1_545  A
C251       C1012   1.415       .  A
C251        H258   1.082       .  S
C252        C253   1.427       .  A
C253       C1010   1.410       .  A
C253        C260   1.520       .  S
C254        C255   1.407       .  A
C254       C1009   1.412       .  A
C254        H259   1.082       .  S
C255        C256   1.430       .  A
C256       C1007   1.412       .  A
C256        C257   1.523       .  S
C257        F261   1.384       .  S
C257        F262   1.383       .  S
C257       F1019   1.383       .  S
C260        F265   1.382       .  S
C260        F266   1.385       .  S
C260       F1020   1.383       .  S
F263       C1013   1.384       .  S
F264       C1016   1.383       .  S
C267        C268   1.407       .  A
C267        C272   1.411       .  A
C267        H274   1.082       .  S
C268        C269   1.428       .  A
C269        C270   1.419       .  A
C269       C1032   1.522       .  S
C270        C271   1.412       .  A
C270       H1031   1.082       .  S
C271        C272   1.425       .  A
C272        C273   1.520       .  S
C273        F277   1.385       .  S
C273        F279   1.382       .  S
C273       F1034   1.382       .  S
H275       C1026   1.082       .  S
C276       C1025   1.522       .  S
C276        F280   1.383   1_565  S
C276       F1037   1.383       .  S
C276       F1038   1.385       .  S
F278       C1029   1.382       .  S
F281       C1032   1.383       .  S
F282       C1032   1.385       .  S
C283        C284   1.406       .  A
C283        C288   1.412       .  A
C283        H290   1.082       .  S
C284       C1041   1.425       .  A
C285        C286   1.416       .  A
C285       C1040   1.428   1_565  A
C285        C292   1.525       .  S
C286        C287   1.410   1_565  A
C286        H291   1.077       .  S
C287       C1044   1.427       .  A
C288       C1043   1.428       .  A
C288        C289   1.521       .  S
C289        F295   1.383       .  S
C289       F1049   1.384       .  S
C289       F1050   1.383       .  S
C292        F296   1.381   1_565  S
C292       F1053   1.382       .  S
C292       F1054   1.384       .  S
F293       C1045   1.385       .  S
F294       C1045   1.382       .  S
F297       C1048   1.382       .  S
F298       C1048   1.381       .  S
C299        C300   1.408   1_565  A
C299        C304   1.411       .  A
C299        H306   1.082       .  S
C300        C301   1.422       .  A
C301        C302   1.409       .  A
C301        C308   1.519       .  S
C302        C303   1.406       .  A
C302        H307   1.083       .  S
C303        C304   1.425   1_545  A
C304        C305   1.521       .  S
C305        F309   1.385       .  S
C305        F310   1.384   1_565  S
C305       F1067   1.382       .  S
C308        F312   1.384       .  S
C308       F1069   1.382       .  S
C308       F1070   1.385       .  S
F311       C1061   1.383       .  S
F313       C1064   1.382       .  S
F314       C1064   1.385       .  S
C315        C316   1.408       .  A
C315        C320   1.417       .  A
C315        H322   1.083       .  S
C316       C1829   1.419       .  A
C317        C318   1.413       .  A
C317       C1828   1.420       .  A
C317        C324   1.518       .  S
C318        C319   1.405   1_455  A
C318        H323   1.083       .  S
C319       C1832   1.419       .  A
C320       C1831   1.419       .  A
C320        C321   1.516       .  S
C321        F325   1.384       .  S
C321        F326   1.384       .  S
C321        F327   1.380       .  S
C324        F328   1.381       .  S
C324        F329   1.384       .  S
C324        F330   1.385       .  S
C331        C332   1.405   1_455  A
C331        C336   1.409       .  A
C331        H338   1.084       .  S
C332       C1845   1.421       .  A
C333        C334   1.409       .  A
C333       C1844   1.418       .  A
C333        C340   1.517       .  S
C334       C1847   1.402       .  A
C334        H339   1.083       .  S
C335        C336   1.418   1_655  A
C335       C1846   1.401       .  A
C336        C337   1.519       .  S
C337        F341   1.384       .  S
C337        F342   1.381       .  S
C337        F343   1.382       .  S
C340        F344   1.381       .  S
C340        F345   1.383       .  S
C340        F346   1.385       .  S
C347        C352   1.410       .  A
C347       C1860   1.402       .  A
C347        H354   1.083       .  S
C348        C349   1.421       .  A
C348       C1859   1.404       .  A
C349        C350   1.413       .  A
C349        C356   1.519       .  S
C350       C1863   1.405       .  A
C350        H355   1.083       .  S
C351        C352   1.421       .  A
C351       C1862   1.406   1_455  A
C352        C353   1.517       .  S
C353        F357   1.385       .  S
C353        F358   1.380       .  S
C353        F359   1.383       .  S
C356        F360   1.384       .  S
C356        F361   1.382       .  S
C356        F362   1.384       .  S
C363        C364   1.404       .  A
C363        C368   1.412       .  A
C363        H370   1.083       .  S
C364       C1877   1.417       .  A
C365        C366   1.408       .  A
C365       C1876   1.418   1_455  A
C365        C372   1.517       .  S
C366       C1879   1.401   1_455  A
C366        H371   1.084       .  S
C367        C368   1.416       .  A
C367       C1878   1.401       .  A
C368        C369   1.518       .  S
C369        F373   1.384       .  S
C369        F374   1.383       .  S
C369        F375   1.382       .  S
C372        F376   1.377       .  S
C372        F377   1.383       .  S
C372        F378   1.384       .  S
O379       Zr391   2.447   1_545  S
O379        C381   1.288       .  A
O380      Zr1929   2.427       .  S
O380        C381   1.288       .  A
C381        C678   1.494       .  S
O382       Zr394   2.455       .  S
O382        C384   1.291       .  A
O383      Zr1174   2.437   1_545  S
O383        C384   1.288       .  A
C384        C694   1.496       .  S
O385       Zr394   2.454       .  S
O385        C387   1.290       .  A
O386       Zr417   2.418       .  S
O386       C1899   1.285       .  A
C387       O1898   1.288       .  A
C387        C742   1.486       .  S
O388       Zr391   2.439       .  S
O388        C390   1.286       .  A
O389       Zr418   2.445       .  S
O389       C1146   1.292       .  A
C390       O1145   1.291       .  A
C390        C630   1.494       .  S
Zr391       O392   2.432   1_565  S
Zr391      O1149   2.437       .  S
Zr391       O397   2.373   1_565  S
Zr391       O398   2.377   1_565  S
Zr391      O1177   2.372       .  S
Zr391      O1179   2.368       .  S
O392        H435   0.990       .  S
O393      Zr1147   2.436       .  S
O393        H434   0.990       .  S
O393        H438   0.990       .  S
Zr394       O395   2.437       .  S
Zr394      O1908   2.433       .  S
Zr394       O398   2.372       .  S
Zr394       O397   2.378       .  S
Zr394      O1934   2.373       .  S
Zr394      O1936   2.378       .  S
O395        H436   0.990       .  S
O395        H439   0.991       .  S
O396      Zr1906   2.436   1_455  S
O396        H429   0.990       .  S
O397      Zr1929   2.387       .  S
O398      Zr1174   2.391   1_545  S
O398        H425   0.962       .  S
O399       Zr411   2.447   1_655  S
O399        C401   1.287       .  A
O400       Zr418   2.417       .  S
O400       C1913   1.286       .  A
C401       O1912   1.289       .  A
C401        C710   1.491       .  S
O402       Zr414   2.453       .  S
O402        C404   1.292       .  A
O403       Zr417   2.424   1_455  S
O403       C1160   1.284       .  A
C404       O1159   1.285       .  A
C404        C662   1.506       .  S
O405       Zr414   2.456       .  S
O405        C407   1.289       .  A
O406      Zr1930   2.450   1_455  S
O406        C407   1.292       .  A
C407        C649   1.515       .  S
O408       Zr411   2.452       .  S
O408        C410   1.290       .  A
O409      Zr1173   2.446       .  S
O409        C410   1.291   1_655  A
C410        C729   1.496       .  S
Zr411       O412   2.437       .  S
Zr411      O1925   2.434   1_455  S
Zr411       O419   2.374       .  S
Zr411       O420   2.375       .  S
Zr411      O1935   2.371   1_455  S
Zr411      O1933   2.373   1_455  S
O412        H432   0.990       .  S
O412        H437   0.990       .  S
O413      Zr1923   2.435       .  S
O413        H433   0.990       .  S
Zr414       O415   2.433       .  S
Zr414      O1172   2.434       .  S
Zr414       O420   2.374       .  S
Zr414       O419   2.377       .  S
Zr414      O1180   2.374       .  S
Zr414      O1178   2.368       .  S
O415        H431   0.990       .  S
O416      Zr1170   2.431       .  S
O416        H430   0.990       .  S
O416        H440   0.989       .  S
Zr417      O1892   2.430       .  S
Zr417      O1165   2.436   1_545  S
Zr417      O1909   2.379       .  S
Zr417      O1176   2.380   1_645  S
Zr417       O422   2.389   1_655  S
Zr417      O2691   2.380   1_545  S
Zr418      O1139   2.427       .  S
Zr418      O1918   2.452       .  S
Zr418      O1154   2.388       .  S
Zr418      O1931   2.390       .  S
Zr418       O421   2.387       .  S
Zr418      O2692   2.382       .  S
O419      Zr1930   2.389   1_455  S
O419        H427   0.966       .  S
O420      Zr1173   2.387   1_455  S
O421      Zr1147   2.376       .  S
O421      Zr1923   2.372       .  S
O422      Zr1906   2.377   1_455  S
O422      Zr1170   2.370       .  S
O422        H426   0.961       .  S
O423      Zr1147   2.371       .  S
O423      Zr1923   2.373       .  S
O423      Zr2685   2.385       .  S
O423        H428   0.973       .  S
O424      Zr1906   2.377   1_455  S
O424      Zr1170   2.374       .  S
O424      Zr2686   2.384   1_445  S
O441       Zr453   2.434       .  S
O441        C443   1.286       .  A
O442       Zr479   2.440       .  S
O442       C1955   1.290       .  A
C443       O1954   1.292       .  A
C443        C745   1.482       .  S
O444       Zr456   2.454       .  S
O444        C446   1.292       .  A
O445       Zr480   2.422       .  S
O445        C446   1.285       .  A
C446        C566   1.486       .  S
O447       Zr456   2.460       .  S
O447        C449   1.293       .  A
O448      Zr1991   2.413       .  S
O448        C449   1.282       .  A
C449        C582   1.493       .  S
O450       Zr453   2.462       .  S
O450        C452   1.292       .  A
O451       Zr480   2.441       .  S
O451        C452   1.288       .  A
C452        C726   1.497       .  S
Zr453       O454   2.436       .  S
Zr453      O1967   2.436       .  S
Zr453       O459   2.380       .  S
Zr453       O460   2.359       .  S
Zr453      O1995   2.369       .  S
Zr453      O1997   2.385       .  S
O454        H497   0.990       .  S
O455      Zr1965   2.438       .  S
O455        H496   0.990       .  S
O455        H500   0.990       .  S
Zr456       O457   2.436       .  S
Zr456       O460   2.372       .  S
Zr456       O459   2.367       .  S
O457        H498   0.990       .  S
O457        H501   0.990       .  S
O458        H491   0.990       .  S
O459      Zr1991   2.390       .  S
O460       Zr480   2.385       .  S
O460        H487   0.968       .  S
O461        C463   1.286       .  A
O462      Zr1992   2.439       .  S
C463        C601   1.482       .  S
O464       Zr476   2.452       .  S
O464        C466   1.289       .  A
O465        C466   1.290   1_455  A
C466        C697   1.487       .  S
O467       Zr476   2.450   1_455  S
O467        C469   1.291       .  A
O468       C1981   1.286       .  A
C469       O1980   1.286       .  A
C469        C713   1.491       .  S
O470       Zr473   2.429       .  S
O471       Zr479   2.425   1_455  S
C472        C614   1.477       .  S
Zr473       O475   2.435       .  S
Zr473       O485   2.371       .  S
Zr473       O483   2.377       .  S
O474        H494   0.988       .  S
O474        H499   0.988       .  S
O475        H495   0.990       .  S
Zr476       O477   2.434   1_655  S
Zr476      O1990   2.433       .  S
Zr476       O482   2.366   1_655  S
Zr476       O481   2.370   1_655  S
Zr476      O1998   2.377       .  S
Zr476      O1996   2.372       .  S
O477        H493   0.991       .  S
O478      Zr1988   2.435       .  S
O478        H492   0.990       .  S
O478        H502   0.990       .  S
Zr479      O1960   2.420       .  S
Zr479      O1971   2.382       .  S
Zr479      O1618   2.384       .  S
Zr479       O485   2.389   1_655  S
Zr480      O1974   2.445       .  S
Zr480      O1615   2.380       .  S
Zr480      O1995   2.378       .  S
O481      Zr1614   2.385   1_556  S
O481        H489   0.962       .  S
O483      Zr1965   2.370       .  S
O483      Zr1992   2.379       .  S
O484      Zr1988   2.364       .  S
O484      Zr1613   2.384   1_556  S
O484        H488   0.970       .  S
O485      Zr1965   2.380       .  S
O485        H490   0.966       .  S
O486      Zr1988   2.369       .  S
O503       Zr515   2.442       .  S
O503        C505   1.287       .  A
O504      Zr1297   2.424       .  S
O504        C505   1.287       .  A
C505        C585   1.490       .  S
O506       Zr518   2.456       .  S
O506       C1264   1.289       .  A
O507       Zr542   2.444   1_545  S
O507        C508   1.292       .  A
C508       O1262   1.288       .  A
C508        C665   1.507       .  S
O509       Zr518   2.462       .  S
O509       C1267   1.293       .  A
O510       Zr541   2.434       .  S
O510       C1267   1.286       .  A
C511       O1265   1.291       .  A
C511       O1266   1.283       .  A
C511        C681   1.495       .  S
O512       Zr515   2.446       .  S
O512        C514   1.290       .  A
O513       Zr542   2.401   1_545  S
O513        C514   1.280       .  A
C514        C617   1.478       .  S
Zr515       O516   2.436       .  S
Zr515       O521   2.372       .  S
Zr515       O522   2.365       .  S
O516        H559   0.990       .  S
O517        H558   0.989       .  S
O517        H562   0.990       .  S
Zr518      O1275   2.433       .  S
Zr518       O520   2.434       .  S
Zr518      O1278   2.379       .  S
Zr518      O1277   2.369       .  S
Zr518       O546   2.373       .  S
Zr518       O548   2.381       .  S
O519      Zr1274   2.436       .  S
O519        H560   0.990       .  S
O519        H563   0.989       .  S
O520        H553   0.989       .  S
O521      Zr1274   2.364       .  S
O521      Zr1297   2.379       .  S
O522      Zr1274   2.369       .  S
O522       Zr542   2.385   1_545  S
O522        H549   0.964       .  S
O523       Zr535   2.461       .  S
O523       C1281   1.293       .  A
O524       C1281   1.286       .  A
C525       O1279   1.294       .  A
C525       O1280   1.288       .  A
C525        C646   1.515       .  S
O526       Zr538   2.448       .  S
O527       Zr541   2.434       .  S
C528        C569   1.488       .  S
O529       Zr538   2.449       .  S
O530      Zr1298   2.410       .  S
C531        C598   1.479       .  S
O532       Zr535   2.468       .  S
O532       C1290   1.293       .  A
O533        C534   1.284       .  A
C534       O1288   1.294       .  A
C534        C633   1.492       .  S
Zr535      O1292   2.438       .  S
Zr535       O537   2.434   1_565  S
Zr535      O1299   2.375       .  S
Zr535      O1300   2.372       .  S
Zr535       O547   2.373   1_565  S
Zr535       O545   2.375   1_565  S
O536      Zr1291   2.434       .  S
O536        H556   0.990       .  S
O536        H561   0.990       .  S
O537        H557   0.990       .  S
Zr538       O540   2.435       .  S
Zr538       O548   2.373       .  S
Zr538       O546   2.373       .  S
O539        H555   0.990       .  S
O540        H554   0.990       .  S
O540        H564   0.990       .  S
Zr541      O1260   2.431       .  S
Zr541      O1277   2.380       .  S
Zr541       O546   2.384       .  S
Zr541       O925   2.389       .  S
Zr542      O1286   2.420       .  S
Zr542       O921   2.385       .  S
Zr542      O1304   2.380       .  S
O543      Zr1291   2.374       .  S
O543       Zr920   2.387   1_556  S
O543        H551   0.967       .  S
O544      Zr1291   2.372       .  S
O546        H550   0.963       .  S
O547       Zr919   2.390       .  S
O547        H552   0.964       .  S
O548      Zr1298   2.385       .  S
C565        C570   1.407       .  A
C565        H572   1.083       .  S
C566        C567   1.421       .  A
C567        C568   1.411       .  A
C567        C574   1.521       .  S
C568        H573   1.083       .  S
C569        C570   1.421       .  A
C570        C571   1.519       .  S
C571        F575   1.385       .  S
C571        F576   1.382       .  S
C574        F579   1.382       .  S
C574        F580   1.385       .  S
C581        C586   1.407       .  A
C581        H588   1.081       .  S
C582        C583   1.425       .  A
C583        C584   1.409       .  A
C583        C590   1.522       .  S
C584        C585   1.406       .  A
C584        H589   1.083       .  S
C586        C587   1.522       .  S
C587        F593   1.381       .  S
C590        F594   1.385       .  S
C590        F596   1.381       .  S
C597        C598   1.400   1_556  A
C597        C602   1.404       .  A
C597        H604   1.083       .  S
C599        C600   1.404       .  A
C599        C606   1.514       .  S
C600        H605   1.083       .  S
C601        C602   1.421       .  A
C602        C603   1.516       .  S
C603        F607   1.385       .  S
C603        F608   1.383       .  S
C606        F611   1.384       .  S
C606        F612   1.384       .  S
C613        C614   1.403   1_554  A
C613        H620   1.083       .  S
C615        C616   1.399       .  A
C616        C617   1.400       .  A
C616        H621   1.084       .  S
C617        C618   1.422       .  A
C618        C619   1.521       .  S
C619        F623   1.382       .  S
C619        F624   1.382       .  S
C622        F627   1.384       .  S
C622        F628   1.385       .  S
C629        C630   1.405   1_545  A
C629       C1390   1.411       .  A
C629        H636   1.083       .  S
C630        C631   1.423       .  A
C631       C1388   1.410       .  A
C631        C638   1.521       .  S
C632       C1387   1.409       .  A
C632        C633   1.403       .  A
C632        H637   1.083       .  S
C633        C634   1.423       .  A
C634       C1385   1.410       .  A
C634        C635   1.521       .  S
C635        F639   1.385       .  S
C635        F640   1.383       .  S
C635       F1397   1.383       .  S
C638       F1398   1.381       .  S
C638        F643   1.382       .  S
C638        F644   1.385       .  S
F641       C1391   1.383       .  S
F642       C1394   1.382       .  S
C645        C646   1.408       .  A
C645        C650   1.412       .  A
C645        H652   1.082       .  S
C646        C647   1.428       .  A
C647        C648   1.418       .  A
C647       C1410   1.522       .  S
C648        C649   1.411       .  A
C648       H1409   1.082       .  S
C649        C650   1.428       .  A
C650        C651   1.522       .  S
C651        F655   1.385       .  S
C651       F1412   1.383       .  S
C651        F657   1.383       .  S
H653       C1404   1.082       .  S
C654       C1403   1.522       .  S
C654        F658   1.383       .  S
C654       F1415   1.384       .  S
C654       F1416   1.384       .  S
F656       C1407   1.382       .  S
F659       C1410   1.383       .  S
F660       C1410   1.384       .  S
C661        C662   1.408       .  A
C661        C666   1.411       .  A
C661        H668   1.082       .  S
C662       C1419   1.426       .  A
C663       C1418   1.424   1_565  A
C663        C664   1.411       .  A
C663        C670   1.524       .  S
C664        C665   1.408   1_565  A
C664        H669   1.078       .  S
C665       C1422   1.426       .  A
C666       C1421   1.426       .  A
C666        C667   1.521       .  S
C667       F1427   1.385       .  S
C667       F1428   1.383       .  S
C667        F673   1.382       .  S
C670        F674   1.378       .  S
C670       F1431   1.380       .  S
C670       F1432   1.381       .  S
F671       C1423   1.385       .  S
F672       C1423   1.383       .  S
F675       C1426   1.382       .  S
F676       C1426   1.383       .  S
C677        C678   1.407   1_565  A
C677        C682   1.411       .  A
C677        H684   1.083       .  S
C678        C679   1.422       .  A
C679        C680   1.405       .  A
C679        C686   1.520       .  S
C680        C681   1.405       .  A
C680        H685   1.083       .  S
C681        C682   1.425   1_545  A
C682        C683   1.522       .  S
C683        F687   1.384       .  S
C683        F688   1.383   1_565  S
C683       F1445   1.383       .  S
C686        F690   1.383       .  S
C686       F1447   1.382       .  S
C686       F1448   1.385       .  S
F689       C1439   1.382       .  S
F691       C1442   1.383       .  S
F692       C1442   1.384       .  S
C693        C694   1.403       .  A
C693        C698   1.410       .  A
C693        H700   1.083       .  S
C694       C2207   1.421       .  A
C695       C2206   1.418       .  A
C695        C696   1.414       .  A
C695        C702   1.517       .  S
C696        C697   1.405   1_455  A
C696        H701   1.083       .  S
C697       C2210   1.417       .  A
C698       C2209   1.426       .  A
C698        C699   1.521       .  S
C699        F703   1.385       .  S
C699        F704   1.383       .  S
C699        F705   1.383       .  S
C702        F706   1.384       .  S
C702        F707   1.382       .  S
C702        F708   1.384       .  S
C709        C710   1.405   1_455  A
C709        C714   1.409       .  A
C709        H716   1.083       .  S
C710       C2223   1.422       .  A
C711       C2222   1.419       .  A
C711        C712   1.406       .  A
C711        C718   1.518       .  S
C712       C2225   1.403       .  A
C712        H717   1.083       .  S
C713       C2224   1.405   1_455  A
C713        C714   1.422       .  A
C714        C715   1.520       .  S
C715        F719   1.385       .  S
C715        F720   1.383       .  S
C715        F721   1.382       .  S
C718        F722   1.382       .  S
C718        F723   1.382       .  S
C718        F724   1.385       .  S
C725       C2238   1.403       .  A
C725        C730   1.410       .  A
C725        H732   1.083       .  S
C726       C2237   1.403       .  A
C726        C727   1.423       .  A
C727        C728   1.417       .  A
C727        C734   1.519       .  S
C728       C2241   1.408       .  A
C728        H733   1.083       .  S
C729       C2240   1.407   1_455  A
C729        C730   1.421       .  A
C730        C731   1.519       .  S
C731        F735   1.384       .  S
C731        F736   1.381       .  S
C731        F737   1.384       .  S
C734        F738   1.383       .  S
C734        F739   1.383       .  S
C734        F740   1.384       .  S
C741        C742   1.403       .  A
C741        C746   1.410       .  A
C741        H748   1.083       .  S
C742       C2255   1.419       .  A
C743       C2254   1.416   1_455  A
C743        C744   1.406       .  A
C743        C750   1.515       .  S
C744       C2257   1.401   1_455  A
C744        H749   1.084       .  S
C745       C2256   1.401       .  A
C745        C746   1.420       .  A
C746        C747   1.519       .  S
C747        F751   1.385       .  S
C747        F752   1.383       .  S
C747        F753   1.381       .  S
C750        F754   1.377       .  S
C750        F755   1.384       .  S
C750        F756   1.382       .  S
O757       Zr769   2.444       .  S
O757        C759   1.286       .  A
O758      Zr2307   2.435       .  S
O758        C759   1.289       .  A
C759       C1056   1.497       .  S
O760       Zr772   2.460       .  S
O760        C762   1.291       .  A
O761        C762   1.288       .  A
C762       C1072   1.493       .  S
O763       Zr772   2.463       .  S
O763        C765   1.292       .  A
O764       Zr795   2.436       .  S
O764       C2277   1.288       .  A
C765       O2276   1.288       .  A
C765       C1120   1.489       .  S
O766       Zr769   2.436       .  S
O766        C768   1.284       .  A
O767       Zr796   2.452       .  S
C768       C1008   1.504       .  S
Zr769       O770   2.434       .  S
Zr769       O775   2.371       .  S
Zr769       O776   2.372       .  S
O770        H813   0.990       .  S
O771        H812   0.990       .  S
O771        H816   0.990       .  S
Zr772       O773   2.435       .  S
Zr772      O2286   2.437       .  S
Zr772       O776   2.377       .  S
Zr772       O775   2.377       .  S
Zr772      O2312   2.372       .  S
Zr772      O2314   2.379       .  S
O773        H814   0.990       .  S
O773        H817   0.990       .  S
O774      Zr2284   2.433   1_455  S
O774        H807   0.989       .  S
O775      Zr2307   2.385       .  S
O776        H803   0.965       .  S
O777       Zr789   2.450   1_655  S
O777        C779   1.289       .  A
O778       Zr796   2.432       .  S
O778       C2291   1.288       .  A
C779       O2290   1.288       .  A
C779       C1088   1.484       .  S
O780       Zr792   2.464   1_565  S
O780        C782   1.294       .  A
O781       Zr795   2.427   1_455  S
C782       C1040   1.508   1_565  S
O783       Zr792   2.465       .  S
O783        C785   1.290       .  A
O784      Zr2308   2.453   1_455  S
O784        C785   1.293   1_565  A
C785       C1027   1.520       .  S
O786       Zr789   2.450       .  S
O786        C788   1.289       .  A
O787        C788   1.291   1_655  A
C788       C1107   1.491       .  S
Zr789       O790   2.436       .  S
Zr789      O2303   2.432   1_455  S
Zr789       O797   2.373       .  S
Zr789       O798   2.369       .  S
Zr789      O2313   2.377   1_455  S
Zr789      O2311   2.374   1_455  S
O790        H810   0.990       .  S
O790        H815   0.990       .  S
O791      Zr2301   2.433       .  S
O791        H811   0.990       .  S
Zr792       O793   2.434   1_545  S
Zr792       O798   2.373   1_545  S
Zr792       O797   2.375   1_545  S
O793        H809   0.990       .  S
O794        H808   0.989       .  S
O794        H818   0.989       .  S
Zr795      O2270   2.431       .  S
Zr795      O2287   2.381       .  S
Zr795       O800   2.385   1_655  S
Zr795      O1557   2.382       .  S
Zr796      O2296   2.457       .  S
Zr796      O2309   2.394       .  S
Zr796       O799   2.393       .  S
Zr796      O1558   2.392   1_565  S
O797      Zr2308   2.388   1_455  S
O797        H805   0.966       .  S
O799      Zr2301   2.377       .  S
O800      Zr2284   2.374   1_455  S
O800        H804   0.961       .  S
O801      Zr2301   2.373       .  S
O801      Zr1551   2.383       .  S
O801        H806   0.972       .  S
O802      Zr2284   2.380   1_455  S
O802      Zr1552   2.387   1_455  S
O819       Zr831   2.444       .  S
O819        C821   1.288       .  A
O820       Zr857   2.446       .  S
O820       C2333   1.290   1_455  A
C821       O2332   1.289       .  A
C821       C1123   1.483       .  S
O822       Zr834   2.458       .  S
O822        C824   1.293   1_554  A
O823       Zr858   2.416       .  S
O823        C824   1.283       .  A
C824        C944   1.487       .  S
O825       Zr834   2.461       .  S
O825        C827   1.294       .  A
O826      Zr2369   2.402       .  S
O826        C827   1.280       .  A
C827        C960   1.490       .  S
O828       Zr831   2.452       .  S
O828        C830   1.289       .  A
O829       Zr858   2.436   1_554  S
O829        C830   1.287       .  A
C830       C1104   1.486       .  S
Zr831       O832   2.435       .  S
Zr831      O2345   2.435       .  S
Zr831       O837   2.376       .  S
Zr831       O838   2.369       .  S
Zr831      O2373   2.371       .  S
Zr831      O2375   2.376       .  S
O832        H875   0.990       .  S
O833      Zr2343   2.435       .  S
O833        H874   0.990       .  S
O833        H878   0.990       .  S
Zr834       O835   2.434       .  S
Zr834      O1214   2.435   1_554  S
Zr834       O838   2.369       .  S
Zr834       O837   2.372       .  S
Zr834      O1240   2.374   1_554  S
Zr834      O1242   2.373   1_554  S
O835        H876   0.990       .  S
O835        H879   0.990       .  S
O836      Zr1212   2.435       .  S
O836        H869   0.990       .  S
O837      Zr2369   2.387       .  S
O838       Zr858   2.387   1_554  S
O838        H865   0.969       .  S
O839      Zr1229   2.426       .  S
O839        C841   1.283       .  A
O840      Zr2370   2.437       .  S
O840       C1219   1.290       .  A
C841       O1218   1.290       .  A
C841        C979   1.482       .  S
O842       Zr854   2.448   1_455  S
O842        C844   1.290   1_455  A
O843      Zr1235   2.450   1_655  S
O843        C844   1.291       .  A
C844       C1075   1.492   1_655  S
O845       Zr854   2.457       .  S
O845        C847   1.291   1_655  A
O846      Zr1236   2.420       .  S
O846       C2359   1.285       .  A
C847       O2358   1.285       .  A
C847       C1091   1.485   1_455  S
O848       Zr851   2.430       .  S
O848       C1228   1.285       .  A
O849       Zr857   2.435       .  S
O849       C1228   1.289   1_554  A
C850       O1226   1.285       .  A
C850       O1227   1.288       .  A
C850        C992   1.484       .  S
Zr851      O1217   2.418       .  S
Zr851      O1230   2.437       .  S
Zr851       O853   2.433   1_556  S
Zr851      O1237   2.369       .  S
Zr851      O1238   2.361       .  S
Zr851       O863   2.371   1_556  S
Zr851       O861   2.379   1_556  S
O852      Zr1229   2.436       .  S
O852        H872   0.988       .  S
O852        H877   0.989       .  S
O853        H873   0.990       .  S
Zr854       O855   2.435   1_655  S
Zr854      O2368   2.434       .  S
Zr854       O860   2.373   1_655  S
Zr854       O859   2.369   1_655  S
Zr854      O2376   2.372       .  S
Zr854      O2374   2.377       .  S
O855        H871   0.990       .  S
O856      Zr2366   2.433       .  S
O856        H870   0.990       .  S
O856        H880   0.990       .  S
Zr857      O2338   2.413   1_455  S
Zr857      O1221   2.441   1_454  S
Zr857      O2349   2.387   1_455  S
Zr857      O1238   2.379   1_554  S
Zr857      O2752   2.391   1_454  S
Zr857       O863   2.383       .  S
Zr858      O2352   2.438       .  S
Zr858      O1224   2.424       .  S
Zr858      O2749   2.382       .  S
Zr858      O2373   2.379   1_556  S
Zr858      O1242   2.387       .  S
O859      Zr1229   2.370       .  S
O859      Zr2748   2.383       .  S
O859        H867   0.962       .  S
O860      Zr1229   2.360       .  S
O860      Zr1235   2.379       .  S
O861      Zr2343   2.372       .  S
O861      Zr2370   2.383   1_554  S
O862      Zr1212   2.367       .  S
O862      Zr2366   2.368       .  S
O862      Zr2747   2.391       .  S
O862        H866   0.969       .  S
O863      Zr2343   2.375       .  S
O863        H868   0.964       .  S
O864      Zr1212   2.375       .  S
O864      Zr2366   2.368       .  S
O864      Zr1236   2.387       .  S
O881       Zr893   2.431       .  S
O881        C883   1.285       .  A
O882        C883   1.289       .  A
C883        C963   1.489       .  S
O884       Zr896   2.461       .  S
O885       Zr920   2.449       .  S
O885        C886   1.292       .  A
C886       C1043   1.513       .  S
O887       Zr896   2.456       .  S
O888       Zr919   2.428   1_554  S
C889       C1059   1.499       .  S
O890       Zr893   2.447       .  S
O890        C892   1.290   1_556  A
O891       Zr920   2.405       .  S
O891        C892   1.281       .  A
C892        C995   1.479   1_554  S
Zr893       O894   2.435   1_556  S
Zr893      O1273   2.435       .  S
Zr893       O899   2.374   1_556  S
Zr893       O900   2.368   1_556  S
Zr893      O1301   2.362       .  S
Zr893      O1303   2.375       .  S
O894        H937   0.990       .  S
O895      Zr1271   2.435       .  S
O895        H936   0.989       .  S
O895        H940   0.990       .  S
Zr896       O898   2.435   1_545  S
Zr896       O924   2.375   1_545  S
Zr896       O926   2.379   1_545  S
O897        H938   0.989       .  S
O897        H941   0.989       .  S
O898        H931   0.990       .  S
O900       Zr920   2.382       .  S
O900        H927   0.964       .  S
O901       Zr913   2.472       .  S
O902      Zr1298   2.441       .  S
C903       C1024   1.516       .  S
O904       Zr916   2.430       .  S
O904       C1284   1.285       .  A
O905       Zr919   2.436   1_564  S
O905       C1284   1.289       .  A
C906       O1282   1.285       .  A
C906       O1283   1.288       .  A
C906        C947   1.488       .  S
O907       Zr916   2.434       .  S
O907       C1287   1.286       .  A
O908       C1287   1.281       .  A
C909       O1285   1.286       .  A
C909       O1286   1.285       .  A
C909        C976   1.477       .  S
O910       Zr913   2.474       .  S
O911      Zr1297   2.410   1_565  S
O911        C912   1.281       .  A
C912       C1011   1.503       .  S
Zr913       O915   2.435       .  S
Zr913       O925   2.378       .  S
Zr913       O923   2.378       .  S
O914        H934   0.990       .  S
O914        H939   0.990       .  S
O915        H935   0.990       .  S
Zr916      O1295   2.433   1_554  S
Zr916       O918   2.439       .  S
Zr916      O1300   2.379   1_554  S
Zr916      O1299   2.372   1_554  S
Zr916       O926   2.368       .  S
Zr916       O924   2.368       .  S
O917      Zr1294   2.433       .  S
O917        H933   0.990       .  S
O918        H932   0.990       .  S
O918        H942   0.990       .  S
Zr919      O1289   2.427   1_545  S
Zr919      O1300   2.384   1_545  S
Zr919       O924   2.388   1_546  S
Zr920      O1280   2.442   1_554  S
Zr920      O1301   2.380   1_554  S
O921      Zr1294   2.370       .  S
O921        H929   0.968       .  S
O922      Zr1294   2.373       .  S
O922      Zr1297   2.380   1_565  S
O923      Zr1271   2.365       .  S
O923      Zr1298   2.381       .  S
O924        H928   0.963       .  S
O925      Zr1271   2.376       .  S
O925        H930   0.963       .  S
C943       C1322   1.404       .  A
C943        C948   1.406       .  A
C943        H950   1.083       .  S
C944       C1321   1.402   1_556  A
C944        C945   1.422       .  A
C945        C946   1.410       .  A
C945        C952   1.520       .  S
C946       C1325   1.405   1_556  A
C946        H951   1.083       .  S
C947       C1324   1.404       .  A
C947        C948   1.420       .  A
C948        C949   1.520       .  S
C949        F953   1.384       .  S
C949        F954   1.382       .  S
C949       F1333   1.384       .  S
C952       F1334   1.383       .  S
C952        F957   1.382       .  S
C952        F958   1.385       .  S
F955       C1327   1.383       .  S
F956       C1330   1.383       .  S
C959       C1338   1.404       .  A
C959        C964   1.407       .  A
C959        H966   1.083       .  S
C960       C1337   1.403   1_554  A
C960        C961   1.426       .  A
C961        C962   1.407       .  A
C961        C968   1.522       .  S
C962        C963   1.403   1_554  A
C962        H967   1.083       .  S
C963       C1342   1.422       .  A
C964       C1341   1.421       .  A
C964        C965   1.519       .  S
C965       F1347   1.385       .  S
C965       F1348   1.382       .  S
C965        F971   1.383       .  S
C968        F972   1.385       .  S
C968       F1351   1.381       .  S
C968        F974   1.383       .  S
F969       C1343   1.385       .  S
F970       C1343   1.382       .  S
F973       C1346   1.381       .  S
C975        C976   1.402       .  A
C975        C980   1.405       .  A
C975        H982   1.083       .  S
C976       C1355   1.414       .  A
C977       C1354   1.414       .  A
C977        C978   1.403       .  A
C977        C984   1.516       .  S
C978       C1357   1.403   1_554  A
C978        H983   1.084       .  S
C979       C1356   1.401       .  A
C979        C980   1.423       .  A
C980        C981   1.518       .  S
C981        F985   1.385       .  S
C981        F986   1.382       .  S
C981       F1365   1.382       .  S
C984       F1366   1.382       .  S
C984        F989   1.385       .  S
C984        F990   1.384       .  S
F987       C1359   1.382       .  S
F988       C1362   1.383       .  S
C991        C992   1.402       .  A
C991       C1374   1.409       .  A
C991        H998   1.083       .  S
C992       C1371   1.420       .  A
C993       C1370   1.420       .  A
C993        C994   1.402       .  A
C993       C1378   1.518       .  S
C994        C995   1.400       .  A
C994        H999   1.084       .  S
C995        C996   1.421   1_556  A
C996       C1369   1.409       .  A
C996        C997   1.521       .  S
C997       F1001   1.383       .  S
C997       F1002   1.383       .  S
C997       F1381   1.383       .  S
C1000      C1371   1.519       .  S
C1000      F1382   1.382       .  S
C1000      F1005   1.385       .  S
C1000      F1006   1.385       .  S
F1003      C1375   1.382       .  S
F1004      C1378   1.382       .  S
C1007      C1008   1.405       .  A
C1007      H1014   1.082       .  S
C1008      C1009   1.427       .  A
C1009      C1016   1.523       .  S
C1010      C1011   1.403       .  A
C1010      H1015   1.082       .  S
C1011      C1012   1.428   1_565  A
C1012      C1013   1.523       .  S
C1013      F1017   1.384       .  S
C1013      F1018   1.383       .  S
C1016      F1021   1.383       .  S
C1016      F1022   1.385       .  S
C1023      C1024   1.407   1_545  A
C1023      C1028   1.412       .  A
C1023      H1030   1.082       .  S
C1024      C1025   1.429       .  A
C1025      C1026   1.421       .  A
C1026      C1027   1.413   1_565  A
C1027      C1028   1.429       .  A
C1028      C1029   1.521       .  S
C1029      F1033   1.385       .  S
C1029      F1035   1.383       .  S
C1032      F1036   1.383       .  S
C1039      C1040   1.406       .  A
C1039      C1044   1.410       .  A
C1039      H1046   1.082       .  S
C1041      C1042   1.413       .  A
C1041      C1048   1.524       .  S
C1042      C1043   1.409       .  A
C1042      H1047   1.076       .  S
C1044      C1045   1.520       .  S
C1045      F1051   1.382       .  S
C1048      F1052   1.381       .  S
C1055      C1056   1.407       .  A
C1055      C1060   1.411       .  A
C1055      H1062   1.083       .  S
C1056      C1057   1.424       .  A
C1057      C1058   1.409       .  A
C1057      C1064   1.522       .  S
C1058      C1059   1.407       .  A
C1058      H1063   1.083       .  S
C1059      C1060   1.424       .  A
C1060      C1061   1.520       .  S
C1061      F1065   1.384       .  S
C1061      F1066   1.383       .  S
C1064      F1068   1.384       .  S
C1071      C1072   1.409       .  A
C1071      C1076   1.415       .  A
C1071      H1078   1.083       .  S
C1072      C2585   1.420       .  A
C1073      C2584   1.422       .  A
C1073      C1074   1.412       .  A
C1073      C1080   1.518       .  S
C1074      C1075   1.404       .  A
C1074      H1079   1.083       .  S
C1075      C2588   1.418   1_455  A
C1076      C2587   1.421       .  A
C1076      C1077   1.519       .  S
C1077      F1081   1.382       .  S
C1077      F1082   1.383       .  S
C1077      F1083   1.383       .  S
C1080      F1084   1.382       .  S
C1080      F1085   1.383       .  S
C1080      F1086   1.385       .  S
C1087      C1088   1.403   1_455  A
C1087      C1092   1.408       .  A
C1087      H1094   1.083       .  S
C1088      C2601   1.418       .  A
C1089      C2600   1.418       .  A
C1089      C1090   1.408       .  A
C1089      C1096   1.518       .  S
C1090      C2603   1.402       .  A
C1090      H1095   1.083       .  S
C1091      C2602   1.404       .  A
C1091      C1092   1.421   1_655  A
C1092      C1093   1.520       .  S
C1093      F1097   1.385       .  S
C1093      F1098   1.383       .  S
C1093      F1099   1.382       .  S
C1096      F1100   1.381       .  S
C1096      F1101   1.383       .  S
C1096      F1102   1.384       .  S
C1103      C2616   1.403       .  A
C1103      C1108   1.410       .  A
C1103      H1110   1.083       .  S
C1104      C2615   1.403       .  A
C1104      C1105   1.420       .  A
C1105      C1106   1.413       .  A
C1105      C1112   1.520       .  S
C1106      C2619   1.406       .  A
C1106      H1111   1.083       .  S
C1107      C2618   1.405   1_455  A
C1107      C1108   1.421       .  A
C1108      C1109   1.518       .  S
C1109      F1113   1.385       .  S
C1109      F1114   1.382       .  S
C1109      F1115   1.383       .  S
C1112      F1116   1.384       .  S
C1112      F1117   1.382       .  S
C1112      F1118   1.385       .  S
C1119      C1120   1.404       .  A
C1119      C1124   1.412       .  A
C1119      H1126   1.083       .  S
C1120      C2633   1.419       .  A
C1121      C2632   1.417   1_455  A
C1121      C1122   1.411       .  A
C1121      C1128   1.516       .  S
C1122      C2635   1.403   1_455  A
C1122      H1127   1.083       .  S
C1123      C2634   1.401       .  A
C1123      C1124   1.419       .  A
C1124      C1125   1.518       .  S
C1125      F1129   1.384       .  S
C1125      F1130   1.383       .  S
C1125      F1131   1.381       .  S
C1128      F1132   1.378       .  S
C1128      F1133   1.383       .  S
C1128      F1134   1.384       .  S
O1135     Zr1147   2.458       .  S
O1135      C1137   1.290       .  A
O1136     Zr2685   2.423       .  S
O1136      C1137   1.287       .  A
C1137      C1434   1.501       .  S
O1138     Zr1150   2.465       .  S
O1138      C1140   1.292       .  A
O1139      C1140   1.286       .  A
C1140      C1450   1.484       .  S
O1141     Zr1150   2.463       .  S
O1141      C1143   1.293       .  A
O1142     Zr1173   2.444       .  S
O1142      C2655   1.290       .  A
C1143      O2654   1.288       .  A
C1143      C1498   1.490       .  S
O1144     Zr1147   2.444       .  S
O1144      C1146   1.287       .  A
O1145     Zr1174   2.444       .  S
C1146      C1386   1.494       .  S
Zr1147     O1148   2.434       .  S
Zr1147     O1153   2.368       .  S
Zr1147     O1154   2.378       .  S
O1148      H1191   0.990       .  S
O1149      H1190   0.990       .  S
O1149      H1194   0.990       .  S
Zr1150     O1151   2.436       .  S
Zr1150     O2664   2.434       .  S
Zr1150     O1154   2.371       .  S
Zr1150     O1153   2.377       .  S
Zr1150     O2690   2.379       .  S
Zr1150     O2692   2.375       .  S
O1151      H1192   0.990       .  S
O1151      H1195   0.990       .  S
O1152     Zr2662   2.433   1_455  S
O1152      H1185   0.990       .  S
O1153     Zr2685   2.386       .  S
O1154      H1181   0.963       .  S
O1155     Zr1167   2.447   1_655  S
O1155      C1157   1.289       .  A
O1156     Zr1174   2.426       .  S
O1156      C2669   1.288       .  A
C1157      O2668   1.290   1_655  A
C1157      C1466   1.489       .  S
O1158     Zr1170   2.455       .  S
O1158      C1160   1.292       .  A
O1159     Zr1173   2.433   1_455  S
C1160      C1418   1.499       .  S
O1161     Zr1170   2.458       .  S
O1161      C1163   1.290       .  A
O1162     Zr2686   2.453   1_455  S
O1162      C1163   1.293   1_565  A
C1163      C1405   1.513       .  S
O1164     Zr1167   2.460       .  S
O1164      C1166   1.291       .  A
O1165      C1166   1.288   1_655  A
C1166      C1485   1.494       .  S
Zr1167     O1168   2.435       .  S
Zr1167     O2681   2.434   1_455  S
Zr1167     O1175   2.373       .  S
Zr1167     O1176   2.367       .  S
Zr1167     O2691   2.372   1_455  S
Zr1167     O2689   2.383   1_455  S
O1168      H1188   0.990       .  S
O1168      H1193   0.990       .  S
O1169     Zr2679   2.435       .  S
O1169      H1189   0.990       .  S
Zr1170     O1171   2.436   1_545  S
Zr1170     O1176   2.374   1_545  S
Zr1170     O1175   2.371   1_545  S
O1171      H1187   0.990       .  S
O1172      H1186   0.990       .  S
O1172      H1196   0.990       .  S
Zr1173     O2648   2.426       .  S
Zr1173     O2665   2.387       .  S
Zr1173     O1178   2.384   1_655  S
Zr1173     O1935   2.387       .  S
Zr1174     O2674   2.453       .  S
Zr1174     O2687   2.390       .  S
Zr1174     O1177   2.388       .  S
Zr1174     O1936   2.387   1_565  S
O1175     Zr2686   2.386   1_455  S
O1175      H1183   0.966       .  S
O1177     Zr2679   2.374       .  S
O1178     Zr2662   2.377   1_455  S
O1178      H1182   0.962       .  S
O1179     Zr2679   2.374       .  S
O1179     Zr1929   2.384   1_565  S
O1179      H1184   0.972       .  S
O1180     Zr2662   2.375   1_455  S
O1180     Zr1930   2.383   1_455  S
O1197     Zr1209   2.447       .  S
O1197      C1199   1.288       .  A
O1198     Zr1235   2.447   1_655  S
O1198      C2711   1.291       .  A
C1199      O2710   1.292       .  A
C1199      C1501   1.493       .  S
O1200     Zr1212   2.460       .  S
O1200      C1202   1.293       .  A
O1201     Zr1236   2.429       .  S
O1201      C1202   1.286       .  A
C1202      C1322   1.494       .  S
O1203     Zr1212   2.458       .  S
O1203      C1205   1.292       .  A
O1204     Zr2747   2.415       .  S
O1204      C1205   1.284       .  A
C1205      C1338   1.489       .  S
O1206     Zr1209   2.448       .  S
O1206      C1208   1.289       .  A
O1207     Zr1236   2.432       .  S
O1207      C1208   1.287       .  A
C1208      C1482   1.486       .  S
Zr1209     O1210   2.433       .  S
Zr1209     O2723   2.434       .  S
Zr1209     O1215   2.376       .  S
Zr1209     O1216   2.367       .  S
Zr1209     O2751   2.370       .  S
Zr1209     O2753   2.379       .  S
O1210      H1253   0.990       .  S
O1211     Zr2721   2.438       .  S
O1211      H1252   0.989       .  S
O1211      H1256   0.990       .  S
Zr1212     O1213   2.434       .  S
Zr1212     O1216   2.370       .  S
Zr1212     O1215   2.376       .  S
O1213      H1254   0.990       .  S
O1213      H1257   0.990       .  S
O1214      H1247   0.990       .  S
O1215     Zr2747   2.387       .  S
O1216     Zr1236   2.386       .  S
O1216      H1243   0.968       .  S
O1217      C1219   1.282       .  A
O1218     Zr2748   2.435       .  S
C1219      C1357   1.478       .  S
O1220     Zr1232   2.445       .  S
O1220      C1222   1.288       .  A
O1221      C1222   1.290       .  A
C1222      C1453   1.483       .  S
O1223     Zr1232   2.444       .  S
O1223      C1225   1.288   1_655  A
O1224      C2737   1.286       .  A
C1225      O2736   1.288       .  A
C1225      C1469   1.487       .  S
O1226     Zr1229   2.432       .  S
O1227     Zr1235   2.429       .  S
C1228      C1370   1.482       .  S
Zr1229     O1231   2.435       .  S
Zr1229     O1241   2.375       .  S
Zr1229     O1239   2.381       .  S
O1230      H1250   0.989       .  S
O1230      H1255   0.988       .  S
O1231      H1251   0.989       .  S
Zr1232     O1233   2.438   1_655  S
Zr1232     O2746   2.433       .  S
Zr1232     O1238   2.375   1_655  S
Zr1232     O1237   2.370   1_655  S
Zr1232     O2754   2.370       .  S
Zr1232     O2752   2.370       .  S
O1233      H1249   0.990       .  S
O1234     Zr2744   2.435       .  S
O1234      H1248   0.990       .  S
O1234      H1258   0.990       .  S
Zr1235     O2716   2.418   1_455  S
Zr1235     O2727   2.385   1_455  S
Zr1235     O2374   2.391   1_455  S
Zr1235     O1241   2.391       .  S
Zr1236     O2730   2.453       .  S
Zr1236     O2371   2.382       .  S
Zr1236     O2751   2.380       .  S
O1237     Zr2370   2.381       .  S
O1237      H1245   0.969       .  S
O1239     Zr2721   2.368       .  S
O1239     Zr2748   2.384       .  S
O1240     Zr2744   2.365       .  S
O1240     Zr2369   2.392   1_556  S
O1240      H1244   0.969       .  S
O1241     Zr2721   2.384       .  S
O1241      H1246   0.965       .  S
O1242     Zr2744   2.370       .  S
O1259     Zr1271   2.445       .  S
O1259      C1261   1.287       .  A
O1260      C1261   1.289       .  A
C1261      C1341   1.491       .  S
O1262     Zr1274   2.450       .  S
O1263     Zr1298   2.445       .  S
O1263      C1264   1.292       .  A
C1264      C1421   1.511       .  S
O1265     Zr1274   2.448       .  S
O1266     Zr1297   2.416       .  S
C1267      C1437   1.507       .  S
O1268     Zr1271   2.461       .  S
O1268      C1270   1.292       .  A
O1269     Zr1298   2.408       .  S
O1269      C1270   1.281       .  A
C1270      C1373   1.488       .  S
Zr1271     O1272   2.434       .  S
Zr1271     O1277   2.379       .  S
Zr1271     O1278   2.373       .  S
O1272      H1315   0.990       .  S
O1273      H1314   0.988       .  S
O1273      H1318   0.990       .  S
Zr1274     O1276   2.433   1_545  S
Zr1274     O1302   2.374   1_545  S
Zr1274     O1304   2.382   1_545  S
O1275      H1316   0.989       .  S
O1275      H1319   0.990       .  S
O1276      H1309   0.990       .  S
O1278     Zr1298   2.386       .  S
O1278      H1305   0.964       .  S
O1279     Zr1291   2.461       .  S
C1281      C1402   1.508       .  S
O1282     Zr1294   2.434       .  S
O1283     Zr1297   2.434   1_565  S
C1284      C1325   1.486       .  S
O1285     Zr1294   2.429       .  S
C1287      C1354   1.470       .  S
O1288     Zr1291   2.466       .  S
O1289      C1290   1.286       .  A
C1290      C1389   1.499       .  S
Zr1291     O1293   2.434       .  S
Zr1291     O1303   2.374       .  S
Zr1291     O1301   2.374       .  S
O1292      H1312   0.990       .  S
O1292      H1317   0.990       .  S
O1293      H1313   0.990       .  S
Zr1294     O1296   2.435       .  S
Zr1294     O1304   2.371       .  S
Zr1294     O1302   2.367       .  S
O1295      H1311   0.990       .  S
O1296      H1310   0.990       .  S
O1296      H1320   0.990       .  S
Zr1297     O1302   2.383   1_545  S
O1299      H1307   0.967       .  S
O1302      H1306   0.963       .  S
O1303      H1308   0.963       .  S
C1321      C1326   1.404       .  A
C1321      H1328   1.083       .  S
C1322      C1323   1.424       .  A
C1323      C1324   1.413       .  A
C1323      C1330   1.519       .  S
C1324      H1329   1.083       .  S
C1325      C1326   1.422       .  A
C1326      C1327   1.521       .  S
C1327      F1331   1.385       .  S
C1327      F1332   1.383       .  S
C1330      F1335   1.382       .  S
C1330      F1336   1.385       .  S
C1337      C1342   1.404       .  A
C1337      H1344   1.083       .  S
C1338      C1339   1.422       .  A
C1339      C1340   1.409       .  A
C1339      C1346   1.520       .  S
C1340      C1341   1.405       .  A
C1340      H1345   1.083       .  S
C1342      C1343   1.519       .  S
C1343      F1349   1.383       .  S
C1346      F1350   1.385       .  S
C1346      F1352   1.382       .  S
C1353      C1354   1.398   1_556  A
C1353      C1358   1.402       .  A
C1353      H1360   1.083       .  S
C1355      C1356   1.403       .  A
C1355      C1362   1.512       .  S
C1356      H1361   1.084       .  S
C1357      C1358   1.423       .  A
C1358      C1359   1.519       .  S
C1359      F1363   1.385       .  S
C1359      F1364   1.381       .  S
C1362      F1367   1.384       .  S
C1362      F1368   1.384       .  S
C1369      C1370   1.404   1_554  A
C1369      H1376   1.083       .  S
C1371      C1372   1.405       .  A
C1372      C1373   1.403       .  A
C1372      H1377   1.084       .  S
C1373      C1374   1.425       .  A
C1374      C1375   1.521       .  S
C1375      F1379   1.384       .  S
C1375      F1380   1.383       .  S
C1378      F1383   1.384       .  S
C1378      F1384   1.385       .  S
C1385      C1386   1.405       .  A
C1385      H1392   1.083       .  S
C1386      C1387   1.424       .  A
C1387      C1394   1.519       .  S
C1388      C1389   1.406       .  A
C1388      H1393   1.083       .  S
C1389      C1390   1.424   1_565  A
C1390      C1391   1.520       .  S
C1391      F1395   1.386       .  S
C1391      F1396   1.383       .  S
C1394      F1399   1.382       .  S
C1394      F1400   1.385       .  S
C1401      C1402   1.406   1_545  A
C1401      C1406   1.410       .  A
C1401      H1408   1.082       .  S
C1402      C1403   1.426       .  A
C1403      C1404   1.418       .  A
C1404      C1405   1.411   1_565  A
C1405      C1406   1.428       .  A
C1406      C1407   1.520       .  S
C1407      F1411   1.385       .  S
C1407      F1413   1.383       .  S
C1410      F1414   1.384       .  S
C1417      C1418   1.406       .  A
C1417      C1422   1.409       .  A
C1417      H1424   1.082       .  S
C1419      C1420   1.414       .  A
C1419      C1426   1.525       .  S
C1420      C1421   1.409       .  A
C1420      H1425   1.077       .  S
C1422      C1423   1.520       .  S
C1423      F1429   1.382       .  S
C1426      F1430   1.379       .  S
C1433      C1434   1.408       .  A
C1433      C1438   1.413       .  A
C1433      H1440   1.082       .  S
C1434      C1435   1.422       .  A
C1435      C1436   1.411       .  A
C1435      C1442   1.521       .  S
C1436      C1437   1.409       .  A
C1436      H1441   1.083       .  S
C1437      C1438   1.427       .  A
C1438      C1439   1.521       .  S
C1439      F1443   1.384       .  S
C1439      F1444   1.383       .  S
C1442      F1446   1.384       .  S
C1449      C1450   1.404       .  A
C1449      C1454   1.409       .  A
C1449      H1456   1.083       .  S
C1450      C2963   1.419       .  A
C1451      C2962   1.420   1_455  A
C1451      C1452   1.411       .  A
C1451      C1458   1.517       .  S
C1452      C1453   1.402   1_455  A
C1452      H1457   1.083       .  S
C1453      C2966   1.418       .  A
C1454      C2965   1.416       .  A
C1454      C1455   1.517       .  S
C1455      F1459   1.384       .  S
C1455      F1460   1.381       .  S
C1455      F1461   1.384       .  S
C1458      F1462   1.383       .  S
C1458      F1463   1.381       .  S
C1458      F1464   1.385       .  S
C1465      C1466   1.405   1_455  A
C1465      C1470   1.410       .  A
C1465      H1472   1.084       .  S
C1466      C2979   1.421       .  A
C1467      C2978   1.420       .  A
C1467      C1468   1.408       .  A
C1467      C1474   1.517       .  S
C1468      C2981   1.403       .  A
C1468      H1473   1.083       .  S
C1469      C2980   1.404   1_455  A
C1469      C1470   1.418       .  A
C1470      C1471   1.518       .  S
C1471      F1475   1.384       .  S
C1471      F1476   1.383       .  S
C1471      F1477   1.382       .  S
C1474      F1478   1.381       .  S
C1474      F1479   1.381       .  S
C1474      F1480   1.385       .  S
C1481      C2994   1.404       .  A
C1481      C1486   1.412       .  A
C1481      H1488   1.083       .  S
C1482      C2993   1.401       .  A
C1482      C1483   1.420       .  A
C1483      C1484   1.414       .  A
C1483      C1490   1.520       .  S
C1484      C2997   1.408       .  A
C1484      H1489   1.083       .  S
C1485      C2996   1.406   1_455  A
C1485      C1486   1.421       .  A
C1486      C1487   1.519       .  S
C1487      F1491   1.384       .  S
C1487      F1492   1.381       .  S
C1487      F1493   1.384       .  S
C1490      F1494   1.384       .  S
C1490      F1495   1.382       .  S
C1490      F1496   1.384       .  S
C1497      C1498   1.403       .  A
C1497      C1502   1.413       .  A
C1497      H1504   1.083       .  S
C1498      C3011   1.419       .  A
C1499      C3010   1.418   1_455  A
C1499      C1500   1.406       .  A
C1499      C1506   1.515       .  S
C1500      C3013   1.399   1_455  A
C1500      H1505   1.084       .  S
C1501      C3012   1.404       .  A
C1501      C1502   1.424       .  A
C1502      C1503   1.519       .  S
C1503      F1507   1.385       .  S
C1503      F1508   1.382       .  S
C1503      F1509   1.381       .  S
C1506      F1510   1.374       .  S
C1506      F1511   1.383       .  S
C1506      F1512   1.385       .  S
O1513     Zr1525   2.462       .  S
O1513      C1515   1.291   1_565  A
O1514      C1515   1.288       .  A
C1515      C1812   1.499       .  S
O1516     Zr1528   2.466   1_455  S
O1516      C1518   1.292   1_455  A
O1517     Zr2308   2.441   1_545  S
O1517      C1518   1.289       .  A
C1518      C1828   1.495   1_655  S
O1519     Zr1528   2.459       .  S
O1519      C1521   1.291       .  A
O1520     Zr1551   2.428   1_545  S
C1521      C1876   1.484       .  S
O1522     Zr1525   2.448       .  S
O1522      C1524   1.288       .  A
O1523     Zr1552   2.439       .  S
O1523      C2280   1.291       .  A
C1524      O2279   1.291       .  A
C1524      C1764   1.499       .  S
Zr1525     O1526   2.434   1_565  S
Zr1525     O2283   2.438       .  S
Zr1525     O1531   2.374   1_565  S
Zr1525     O1532   2.382   1_565  S
Zr1525     O2311   2.375       .  S
Zr1525     O2313   2.371       .  S
O1526      H1569   0.990       .  S
O1527     Zr2281   2.437       .  S
O1527      H1568   0.990       .  S
O1527      H1572   0.990       .  S
Zr1528     O1529   2.437       .  S
Zr1528     O1532   2.374       .  S
Zr1528     O1531   2.382       .  S
O1529      H1570   0.990       .  S
O1529      H1573   0.990       .  S
O1530      H1563   0.989       .  S
O1532     Zr2308   2.390   1_545  S
O1532      H1559   0.963       .  S
O1533     Zr1545   2.450       .  S
O1533      C1535   1.289       .  A
O1534     Zr1552   2.441       .  S
C1535      C1844   1.483       .  S
O1536     Zr1548   2.453       .  S
O1536      C1538   1.292       .  A
O1537     Zr1551   2.423       .  S
O1537      C2294   1.284       .  A
C1538      O2293   1.283       .  A
C1538      C1796   1.497       .  S
O1539     Zr1548   2.455       .  S
O1539      C1541   1.290       .  A
O1540      C1541   1.293       .  A
C1541      C1783   1.507       .  S
O1542     Zr1545   2.447       .  S
O1542      C1544   1.288       .  A
O1543     Zr2307   2.449       .  S
O1543      C1544   1.291       .  A
C1544      C1863   1.495       .  S
Zr1545     O1546   2.436       .  S
Zr1545     O1553   2.371       .  S
Zr1545     O1554   2.367       .  S
O1546      H1566   0.990       .  S
O1546      H1571   0.990       .  S
O1547      H1567   0.990       .  S
Zr1548     O1549   2.434       .  S
Zr1548     O2306   2.433       .  S
Zr1548     O1554   2.374       .  S
Zr1548     O1553   2.374       .  S
Zr1548     O2314   2.376       .  S
Zr1548     O2312   2.369       .  S
O1549      H1565   0.990       .  S
O1550     Zr2304   2.433   1_545  S
O1550      H1564   0.989       .  S
O1550      H1574   0.989       .  S
Zr1551     O2299   2.435       .  S
Zr1551     O2310   2.383       .  S
Zr1551     O1556   2.386   1_565  S
Zr1552     O2273   2.450   1_655  S
Zr1552     O2288   2.389       .  S
Zr1552     O1555   2.387       .  S
O1553      H1561   0.966       .  S
O1554     Zr2307   2.384       .  S
O1555     Zr2281   2.372       .  S
O1556     Zr2304   2.369   1_545  S
O1556      H1560   0.961       .  S
O1557     Zr2281   2.372       .  S
O1557      H1562   0.972       .  S
O1558     Zr2304   2.383   1_545  S
O1575     Zr1587   2.435   1_655  S
O1575      C1577   1.286       .  A
O1576     Zr1613   2.441       .  S
C1577      C1879   1.477       .  S
O1578     Zr1590   2.464       .  S
O1578      C1580   1.293       .  A
O1579     Zr1614   2.430   1_655  S
O1579      C1580   1.287       .  A
C1580      C1700   1.494       .  S
O1581     Zr1590   2.461       .  S
O1581      C1583   1.294       .  A
O1582      C1583   1.283       .  A
C1583      C1716   1.499       .  S
O1584     Zr1587   2.455       .  S
O1584      C1586   1.290       .  A
O1585     Zr1614   2.431       .  S
O1585      C1586   1.287       .  A
C1586      C1860   1.486       .  S
Zr1587     O1588   2.432   1_455  S
Zr1587     O1593   2.380   1_455  S
Zr1587     O1594   2.368   1_455  S
O1588      H1631   0.990       .  S
O1589      H1630   0.990       .  S
O1589      H1634   0.989       .  S
Zr1590     O1591   2.436       .  S
Zr1590     O1970   2.434   1_554  S
Zr1590     O1594   2.370       .  S
Zr1590     O1593   2.372       .  S
Zr1590     O1996   2.374   1_554  S
Zr1590     O1998   2.378   1_554  S
O1591      H1632   0.990       .  S
O1591      H1635   0.989       .  S
O1592     Zr1968   2.433       .  S
O1592      H1625   0.990       .  S
O1594     Zr1614   2.380   1_655  S
O1594      H1621   0.970       .  S
O1595     Zr1985   2.423       .  S
O1595      C1597   1.283       .  A
O1596      C1975   1.290       .  A
C1597      O1974   1.292       .  A
C1597      C1735   1.482       .  S
O1598     Zr1610   2.453       .  S
O1598      C1600   1.291       .  A
O1599     Zr1991   2.459       .  S
O1599      C1600   1.293       .  A
C1600      C1831   1.495       .  S
O1601     Zr1610   2.462       .  S
O1601      C1603   1.292       .  A
O1602     Zr1992   2.419       .  S
C1603      C1847   1.485       .  S
O1604     Zr1607   2.432       .  S
O1604      C1984   1.285       .  A
O1605     Zr1613   2.429   1_556  S
O1605      C1984   1.287       .  A
C1606      O1982   1.286       .  A
C1606      O1983   1.288       .  A
C1606      C1748   1.488       .  S
Zr1607     O1973   2.421       .  S
Zr1607     O1986   2.437       .  S
Zr1607     O1609   2.435   1_556  S
Zr1607     O1993   2.367       .  S
Zr1607     O1994   2.362       .  S
Zr1607     O1619   2.368   1_556  S
Zr1607     O1617   2.379   1_556  S
O1608     Zr1985   2.436       .  S
O1608      H1628   0.989       .  S
O1608      H1633   0.988       .  S
O1609      H1629   0.990       .  S
Zr1610     O1611   2.434       .  S
Zr1610     O1616   2.378       .  S
Zr1610     O1615   2.369       .  S
O1611      H1627   0.990       .  S
O1612      H1626   0.990       .  S
O1612      H1636   0.990       .  S
Zr1613     O1977   2.459   1_554  S
Zr1613     O1994   2.377   1_554  S
Zr1613     O1619   2.390       .  S
Zr1614     O1980   2.427   1_554  S
Zr1614     O1998   2.384   1_454  S
O1615     Zr1985   2.371       .  S
O1615      H1623   0.961       .  S
O1616     Zr1985   2.364       .  S
O1616     Zr1991   2.377       .  S
O1618     Zr1968   2.372       .  S
O1618      H1622   0.964       .  S
O1619      H1624   0.962       .  S
O1620     Zr1968   2.374       .  S
O1620     Zr1992   2.389   1_655  S
O1637     Zr1649   2.446       .  S
O1637      C1639   1.287       .  A
O1638     Zr2431   2.437   1_545  S
O1638      C1639   1.290       .  A
C1639      C1719   1.502       .  S
O1640     Zr1652   2.454       .  S
O1640      C2398   1.289       .  A
O1641     Zr1676   2.445       .  S
O1641      C1642   1.291   1_565  A
C1642      O2396   1.288       .  A
C1642      C1799   1.513       .  S
O1643     Zr1652   2.455       .  S
O1643      C2401   1.292       .  A
O1644     Zr1675   2.425       .  S
O1644      C2401   1.285       .  A
C1645      O2399   1.289       .  A
C1645      O2400   1.284       .  A
C1645      C1815   1.492       .  S
O1646     Zr1649   2.440       .  S
O1646      C1648   1.289   1_556  A
O1647     Zr1676   2.413   1_545  S
O1647      C1648   1.282       .  A
C1648      C1751   1.483       .  S
Zr1649     O1650   2.432   1_556  S
Zr1649     O2029   2.435       .  S
Zr1649     O1655   2.371   1_556  S
Zr1649     O1656   2.369   1_556  S
Zr1649     O2057   2.371       .  S
Zr1649     O2059   2.371       .  S
O1650      H1693   0.989       .  S
O1651     Zr2027   2.434       .  S
O1651      H1692   0.989       .  S
O1651      H1696   0.990       .  S
Zr1652     O2409   2.436       .  S
Zr1652     O1654   2.434       .  S
Zr1652     O2412   2.371       .  S
Zr1652     O2411   2.368       .  S
Zr1652     O1680   2.373       .  S
Zr1652     O1682   2.379       .  S
O1653     Zr2408   2.433   1_545  S
O1653      H1694   0.989       .  S
O1653      H1697   0.990       .  S
O1654      H1687   0.990       .  S
O1655     Zr2408   2.372   1_545  S
O1655     Zr2431   2.378   1_544  S
O1656     Zr2408   2.370   1_545  S
O1656     Zr1676   2.384   1_545  S
O1656      H1683   0.963       .  S
O1657     Zr1669   2.457       .  S
O1657      C2415   1.292       .  A
O1658     Zr2054   2.458       .  S
O1658      C2415   1.291       .  A
C1659      O2413   1.292       .  A
C1659      O2414   1.288       .  A
C1659      C1780   1.503       .  S
O1660     Zr1672   2.452       .  S
O1660      C2040   1.289       .  A
O1661     Zr1675   2.442       .  S
O1661      C2040   1.290       .  A
C1662      O2038   1.286       .  A
C1662      O2039   1.290       .  A
C1662      C1703   1.491       .  S
O1663     Zr1672   2.444       .  S
O1663      C2043   1.289       .  A
O1664     Zr2432   2.413       .  S
O1664      C2043   1.283       .  A
C1665      O2041   1.287       .  A
C1665      O2042   1.285       .  A
C1665      C1732   1.479       .  S
O1666     Zr1669   2.460       .  S
O1666      C2424   1.293       .  A
O1667     Zr2053   2.420       .  S
O1667      C1668   1.283       .  A
C1668      O2422   1.296       .  A
C1668      C1767   1.505       .  S
Zr1669     O2426   2.437       .  S
Zr1669     O1671   2.432   1_565  S
Zr1669     O2433   2.370       .  S
Zr1669     O2434   2.370       .  S
Zr1669     O1681   2.374   1_565  S
Zr1669     O1679   2.376   1_565  S
O1670     Zr2425   2.437       .  S
O1670      H1690   0.990       .  S
O1670      H1695   0.990       .  S
O1671      H1691   0.990       .  S
Zr1672     O2051   2.433   1_554  S
Zr1672     O1674   2.436       .  S
Zr1672     O2056   2.377   1_554  S
Zr1672     O2055   2.376   1_554  S
Zr1672     O1682   2.372       .  S
Zr1672     O1680   2.370       .  S
O1673     Zr2050   2.434       .  S
O1673      H1689   0.990       .  S
O1674      H1688   0.989       .  S
O1674      H1698   0.990       .  S
Zr1675     O2394   2.430   1_554  S
Zr1675     O2045   2.414   1_554  S
Zr1675     O2411   2.383       .  S
Zr1675     O2056   2.383   1_554  S
Zr1675     O1680   2.385       .  S
Zr1675     O2815   2.390   1_554  S
Zr1676     O2036   2.443   1_554  S
Zr1676     O2420   2.407       .  S
Zr1676     O2811   2.391   1_554  S
Zr1676     O2057   2.382   1_564  S
Zr1676     O2438   2.384       .  S
O1677     Zr2425   2.381       .  S
O1677     Zr2050   2.372       .  S
O1677     Zr2810   2.390       .  S
O1677      H1685   0.968       .  S
O1678     Zr2425   2.373       .  S
O1678     Zr2050   2.377       .  S
O1678     Zr2053   2.384       .  S
O1679     Zr2027   2.368       .  S
O1679     Zr2054   2.380   1_545  S
O1680      H1684   0.963       .  S
O1681     Zr2027   2.374       .  S
O1681     Zr2809   2.388       .  S
O1681      H1686   0.962       .  S
O1682     Zr2432   2.386       .  S
C1699      C2078   1.404       .  A
C1699      C1704   1.407       .  A
C1699      H1706   1.083       .  S
C1700      C2077   1.404       .  A
C1700      C1701   1.423   1_554  A
C1701      C1702   1.415       .  A
C1701      C1708   1.520       .  S
C1702      C2081   1.407   1_556  A
C1702      H1707   1.083       .  S
C1703      C2080   1.406       .  A
C1703      C1704   1.422       .  A
C1704      C1705   1.521       .  S
C1705      F1709   1.385       .  S
C1705      F1710   1.382       .  S
C1705      F2089   1.383       .  S
C1708      F2090   1.384       .  S
C1708      F1713   1.383       .  S
C1708      F1714   1.384       .  S
F1711      C2083   1.384       .  S
F1712      C2086   1.383       .  S
C1715      C2094   1.405       .  A
C1715      C1720   1.409       .  A
C1715      H1722   1.083       .  S
C1716      C2093   1.405   1_554  A
C1716      C1717   1.426       .  A
C1717      C1718   1.411       .  A
C1717      C1724   1.522       .  S
C1718      C1719   1.407   1_554  A
C1718      H1723   1.082       .  S
C1719      C2098   1.425       .  A
C1720      C2097   1.423       .  A
C1720      C1721   1.519       .  S
C1721      F2103   1.385       .  S
C1721      F2104   1.382       .  S
C1721      F1727   1.383       .  S
C1724      F1728   1.385       .  S
C1724      F2107   1.381       .  S
C1724      F1730   1.383       .  S
F1725      C2099   1.385       .  S
F1726      C2099   1.382       .  S
F1729      C2102   1.382       .  S
C1731      C1732   1.400       .  A
C1731      C1736   1.405       .  A
C1731      H1738   1.083       .  S
C1732      C2111   1.414       .  A
C1733      C2110   1.416       .  A
C1733      C1734   1.403       .  A
C1733      C1740   1.511       .  S
C1734      C2113   1.401   1_554  A
C1734      H1739   1.083       .  S
C1735      C2112   1.401       .  A
C1735      C1736   1.423       .  A
C1736      C1737   1.517       .  S
C1737      F1741   1.385       .  S
C1737      F1742   1.379       .  S
C1737      F2121   1.381       .  S
C1740      F2122   1.382       .  S
C1740      F1745   1.384       .  S
C1740      F1746   1.384       .  S
F1743      C2115   1.382       .  S
F1744      C2118   1.379       .  S
C1747      C1748   1.406       .  A
C1747      C2130   1.411       .  A
C1747      H1754   1.083       .  S
C1748      C2127   1.422       .  A
C1749      C2126   1.421       .  A
C1749      C1750   1.401       .  A
C1749      C2134   1.520       .  S
C1750      C1751   1.402   1_556  A
C1750      H1755   1.083       .  S
C1751      C1752   1.422       .  A
C1752      C2125   1.409       .  A
C1752      C1753   1.521       .  S
C1753      F1757   1.385       .  S
C1753      F1758   1.383       .  S
C1753      F2137   1.383       .  S
C1756      C2127   1.519       .  S
C1756      F2138   1.381       .  S
C1756      F1761   1.384       .  S
C1756      F1762   1.385       .  S
F1759      C2131   1.383       .  S
F1760      C2134   1.382       .  S
C1763      C1764   1.407   1_545  A
C1763      C2524   1.412       .  A
C1763      H1770   1.082       .  S
C1764      C1765   1.424       .  A
C1765      C2522   1.408       .  A
C1765      C1772   1.520       .  S
C1766      C2521   1.410       .  A
C1766      C1767   1.407       .  A
C1766      H1771   1.082       .  S
C1767      C1768   1.430       .  A
C1768      C2519   1.411       .  A
C1768      C1769   1.523       .  S
C1769      F1773   1.385       .  S
C1769      F1774   1.383       .  S
C1769      F2531   1.383       .  S
C1772      F2532   1.382       .  S
C1772      F1777   1.382       .  S
C1772      F1778   1.385       .  S
F1775      C2525   1.383       .  S
F1776      C2528   1.384       .  S
C1779      C1780   1.405       .  A
C1779      C1784   1.410       .  A
C1779      H1786   1.083       .  S
C1780      C1781   1.424       .  A
C1781      C1782   1.416       .  A
C1781      C2544   1.519       .  S
C1782      C1783   1.409       .  A
C1782      H2543   1.083       .  S
C1783      C1784   1.426       .  A
C1784      C1785   1.518       .  S
C1785      F1789   1.385       .  S
C1785      F2546   1.382       .  S
C1785      F1791   1.382       .  S
H1787      C2538   1.082       .  S
C1788      C2537   1.519       .  S
C1788      F1792   1.383       .  S
C1788      F2549   1.383       .  S
C1788      F2550   1.385       .  S
F1790      C2541   1.383       .  S
F1793      C2544   1.383       .  S
F1794      C2544   1.384       .  S
C1795      C1796   1.406       .  A
C1795      C1800   1.408       .  A
C1795      H1802   1.082       .  S
C1796      C2553   1.425       .  A
C1797      C2552   1.426       .  A
C1797      C1798   1.413       .  A
C1797      C1804   1.524       .  S
C1798      C1799   1.409   1_565  A
C1798      H1803   1.077       .  S
C1799      C2556   1.427       .  A
C1800      C2555   1.425       .  A
C1800      C1801   1.520       .  S
C1801      F2561   1.385       .  S
C1801      F2562   1.383       .  S
C1801      F1807   1.382       .  S
C1804      F1808   1.381   1_565  S
C1804      F2565   1.382       .  S
C1804      F2566   1.384       .  S
F1805      C2557   1.385       .  S
F1806      C2557   1.382       .  S
F1809      C2560   1.382       .  S
F1810      C2560   1.381       .  S
C1811      C1812   1.410   1_565  A
C1811      C1816   1.413       .  A
C1811      H1818   1.083       .  S
C1812      C1813   1.422       .  A
C1813      C1814   1.407       .  A
C1813      C1820   1.519       .  S
C1814      C1815   1.405       .  A
C1814      H1819   1.083       .  S
C1815      C1816   1.422   1_545  A
C1816      C1817   1.523       .  S
C1817      F1821   1.383       .  S
C1817      F1822   1.383       .  S
C1817      F2579   1.383       .  S
C1820      F1824   1.383       .  S
C1820      F2581   1.382       .  S
C1820      F2582   1.385       .  S
F1823      C2573   1.381       .  S
F1825      C2576   1.382       .  S
F1826      C2576   1.385       .  S
C1827      C1828   1.406   1_655  A
C1827      C1832   1.415       .  A
C1827      H1834   1.083       .  S
C1829      C1830   1.411       .  A
C1829      C1836   1.517       .  S
C1830      C1831   1.404       .  A
C1830      H1835   1.083       .  S
C1832      C1833   1.518       .  S
C1833      F1837   1.384       .  S
C1833      F1838   1.384       .  S
C1833      F1839   1.382       .  S
C1836      F1840   1.381       .  S
C1836      F1841   1.384       .  S
C1836      F1842   1.384       .  S
C1843      C1844   1.403       .  A
C1843      C1848   1.409       .  A
C1843      H1850   1.084       .  S
C1845      C1846   1.408       .  A
C1845      C1852   1.517       .  S
C1846      H1851   1.083       .  S
C1847      C1848   1.420       .  A
C1848      C1849   1.517       .  S
C1849      F1853   1.385       .  S
C1849      F1854   1.381       .  S
C1849      F1855   1.382       .  S
C1852      F1856   1.381       .  S
C1852      F1857   1.382       .  S
C1852      F1858   1.386       .  S
C1859      C1864   1.412       .  A
C1859      H1866   1.083       .  S
C1860      C1861   1.419   1_455  A
C1861      C1862   1.413       .  A
C1861      C1868   1.518       .  S
C1862      H1867   1.083       .  S
C1863      C1864   1.423       .  A
C1864      C1865   1.519       .  S
C1865      F1869   1.385       .  S
C1865      F1870   1.382       .  S
C1865      F1871   1.384       .  S
C1868      F1872   1.384       .  S
C1868      F1873   1.382       .  S
C1868      F1874   1.384       .  S
C1875      C1876   1.404       .  A
C1875      C1880   1.410       .  A
C1875      H1882   1.083       .  S
C1877      C1878   1.409       .  A
C1877      C1884   1.516       .  S
C1878      H1883   1.083       .  S
C1879      C1880   1.417       .  A
C1880      C1881   1.520       .  S
C1881      F1885   1.384       .  S
C1881      F1886   1.383       .  S
C1881      F1887   1.381       .  S
C1884      F1888   1.377       .  S
C1884      F1889   1.383       .  S
C1884      F1890   1.384       .  S
O1891     Zr1903   2.448   1_545  S
O1891      C1893   1.287       .  A
O1892      C1893   1.288       .  A
C1893      C2190   1.498       .  S
O1894     Zr1906   2.461       .  S
O1894      C1896   1.292       .  A
O1895     Zr2686   2.436   1_445  S
O1895      C1896   1.288   1_455  A
C1896      C2206   1.486   1_655  S
O1897     Zr1906   2.454       .  S
O1897      C1899   1.290       .  A
O1898     Zr1929   2.438       .  S
C1899      C2254   1.478       .  S
O1900     Zr1903   2.439       .  S
O1900      C1902   1.287       .  A
O1901     Zr1930   2.444       .  S
O1901      C2658   1.291       .  A
C1902      O2657   1.292       .  A
C1902      C2142   1.491       .  S
Zr1903     O1904   2.435   1_565  S
Zr1903     O2661   2.436       .  S
Zr1903     O1909   2.364   1_565  S
Zr1903     O1910   2.372   1_565  S
Zr1903     O2689   2.379       .  S
Zr1903     O2691   2.373       .  S
O1904      H1947   0.990       .  S
O1905     Zr2659   2.438       .  S
O1905      H1946   0.990       .  S
O1905      H1950   0.990       .  S
Zr1906     O1907   2.436       .  S
Zr1906     O1910   2.367       .  S
Zr1906     O1909   2.372       .  S
O1907      H1948   0.991       .  S
O1907      H1951   0.990       .  S
O1908      H1941   0.990       .  S
O1910     Zr2686   2.386   1_545  S
O1910      H1937   0.964       .  S
O1911     Zr1923   2.454       .  S
O1911      C1913   1.289       .  A
O1912     Zr1930   2.431       .  S
C1913      C2222   1.484       .  S
O1914     Zr1926   2.457       .  S
O1914      C1916   1.292       .  A
O1915     Zr1929   2.422       .  S
O1915      C2672   1.284   1_545  A
C1916      O2671   1.284       .  A
C1916      C2174   1.501       .  S
O1917     Zr1926   2.446       .  S
O1917      C1919   1.286       .  A
O1918      C1919   1.293       .  A
C1919      C2161   1.512       .  S
O1920     Zr1923   2.462       .  S
O1920      C1922   1.291       .  A
O1921     Zr2685   2.446       .  S
O1921      C1922   1.291       .  A
C1922      C2241   1.499       .  S
Zr1923     O1924   2.436       .  S
Zr1923     O1931   2.376       .  S
Zr1923     O1932   2.375       .  S
O1924      H1944   0.990       .  S
O1924      H1949   0.990       .  S
O1925      H1945   0.990       .  S
Zr1926     O1927   2.434       .  S
Zr1926     O2684   2.432       .  S
Zr1926     O1932   2.372       .  S
Zr1926     O1931   2.376       .  S
Zr1926     O2692   2.377       .  S
Zr1926     O2690   2.366       .  S
O1927      H1943   0.990       .  S
O1928     Zr2682   2.435   1_545  S
O1928      H1942   0.989       .  S
O1928      H1952   0.989       .  S
Zr1929     O2677   2.446   1_545  S
Zr1929     O2688   2.383   1_545  S
Zr1929     O1934   2.385       .  S
Zr1930     O2651   2.432   1_655  S
Zr1930     O2666   2.390       .  S
Zr1930     O1933   2.390       .  S
O1931      H1939   0.967       .  S
O1932     Zr2685   2.383       .  S
O1933     Zr2659   2.375       .  S
O1934     Zr2682   2.367   1_545  S
O1934      H1938   0.962       .  S
O1935     Zr2659   2.370       .  S
O1935      H1940   0.972       .  S
O1936     Zr2682   2.378   1_545  S
O1953     Zr1965   2.433   1_655  S
O1953      C1955   1.286       .  A
O1954     Zr1991   2.449       .  S
C1955      C2257   1.479       .  S
O1956     Zr1968   2.448       .  S
O1956      C1958   1.291       .  A
O1957     Zr1992   2.433   1_655  S
O1957      C1958   1.287       .  A
C1958      C2078   1.489       .  S
O1959     Zr1968   2.454       .  S
O1959      C1961   1.291       .  A
O1960      C1961   1.284       .  A
C1961      C2094   1.492       .  S
O1962     Zr1965   2.455       .  S
O1962      C1964   1.291       .  A
O1963     Zr1992   2.445       .  S
O1963      C1964   1.289       .  A
C1964      C2238   1.494       .  S
Zr1965     O1966   2.436   1_455  S
Zr1965     O1971   2.378   1_455  S
Zr1965     O1972   2.365   1_455  S
O1966      H2009   0.990       .  S
O1967      H2008   0.990       .  S
O1967      H2012   0.990       .  S
Zr1968     O1969   2.434       .  S
Zr1968     O1972   2.372       .  S
Zr1968     O1971   2.370       .  S
O1969      H2010   0.990       .  S
O1969      H2013   0.990       .  S
O1970      H2003   0.990       .  S
O1972     Zr1992   2.379   1_655  S
O1972      H1999   0.967       .  S
O1973      C1975   1.282       .  A
C1975      C2113   1.485       .  S
O1976     Zr1988   2.442       .  S
O1976      C1978   1.287       .  A
O1977      C1978   1.294       .  A
C1978      C2209   1.501       .  S
O1979     Zr1988   2.444       .  S
O1979      C1981   1.290       .  A
C1981      C2225   1.482       .  S
O1982     Zr1985   2.437       .  S
O1983     Zr1991   2.435       .  S
C1984      C2126   1.484       .  S
Zr1985     O1987   2.433       .  S
Zr1985     O1997   2.368       .  S
Zr1985     O1995   2.380       .  S
O1986      H2006   0.989       .  S
O1986      H2011   0.989       .  S
O1987      H2007   0.990       .  S
Zr1988     O1989   2.435       .  S
Zr1988     O1994   2.374       .  S
Zr1988     O1993   2.372       .  S
O1989      H2005   0.991       .  S
O1990      H2004   0.990       .  S
O1990      H2014   0.990       .  S
Zr1991     O1997   2.388       .  S
O1993      H2001   0.964       .  S
O1996      H2000   0.971       .  S
O1997      H2002   0.963       .  S
O2015     Zr2027   2.450       .  S
O2015      C2017   1.288       .  A
O2016     Zr2809   2.431       .  S
O2016      C2017   1.289       .  A
C2017      C2097   1.495       .  S
O2018     Zr2030   2.453       .  S
O2018      C2776   1.289       .  A
O2019     Zr2054   2.451       .  S
O2019      C2020   1.293   1_565  A
C2020      O2774   1.287       .  A
C2020      C2177   1.509       .  S
O2021     Zr2030   2.451       .  S
O2021      C2779   1.291       .  A
O2022     Zr2053   2.433       .  S
O2022      C2779   1.286       .  A
C2023      O2777   1.291       .  A
C2023      O2778   1.284       .  A
C2023      C2193   1.496       .  S
O2024     Zr2027   2.450       .  S
O2024      C2026   1.291       .  A
O2025     Zr2054   2.408   1_545  S
O2025      C2026   1.282       .  A
C2026      C2129   1.483       .  S
Zr2027     O2028   2.435       .  S
Zr2027     O2033   2.376       .  S
Zr2027     O2034   2.371       .  S
O2028      H2071   0.990       .  S
O2029      H2070   0.989       .  S
O2029      H2074   0.990       .  S
Zr2030     O2787   2.433       .  S
Zr2030     O2032   2.435       .  S
Zr2030     O2790   2.376       .  S
Zr2030     O2789   2.369       .  S
Zr2030     O2058   2.373       .  S
Zr2030     O2060   2.378       .  S
O2031     Zr2786   2.434       .  S
O2031      H2072   0.989       .  S
O2031      H2075   0.990       .  S
O2032      H2065   0.990       .  S
O2033     Zr2786   2.370       .  S
O2033     Zr2809   2.379       .  S
O2034     Zr2786   2.376       .  S
O2034     Zr2054   2.388   1_545  S
O2034      H2061   0.964       .  S
O2035     Zr2047   2.469       .  S
O2035      C2793   1.295       .  A
O2036      C2793   1.288       .  A
C2037      O2791   1.292       .  A
C2037      O2792   1.288       .  A
C2037      C2158   1.512       .  S
O2038     Zr2050   2.437       .  S
O2039     Zr2053   2.443       .  S
C2040      C2081   1.495       .  S
O2041     Zr2050   2.439       .  S
O2042     Zr2810   2.423       .  S
C2043      C2110   1.480       .  S
O2044     Zr2047   2.468       .  S
O2044      C2802   1.294       .  A
O2045      C2046   1.283       .  A
C2046      O2800   1.295       .  A
C2046      C2145   1.497       .  S
Zr2047     O2804   2.438       .  S
Zr2047     O2049   2.434   1_565  S
Zr2047     O2811   2.374       .  S
Zr2047     O2812   2.375       .  S
Zr2047     O2059   2.375   1_565  S
Zr2047     O2057   2.377   1_565  S
O2048     Zr2803   2.434       .  S
O2048      H2068   0.990       .  S
O2048      H2073   0.990       .  S
O2049      H2069   0.990       .  S
Zr2050     O2052   2.435       .  S
Zr2050     O2060   2.369       .  S
Zr2050     O2058   2.373       .  S
O2051      H2067   0.990       .  S
O2052      H2066   0.990       .  S
O2052      H2076   0.990       .  S
Zr2053     O2772   2.432       .  S
Zr2053     O2789   2.381       .  S
Zr2053     O2058   2.384       .  S
Zr2053     O2437   2.389       .  S
Zr2054     O2798   2.413       .  S
Zr2054     O2433   2.381       .  S
Zr2054     O2816   2.386       .  S
O2055     Zr2803   2.374       .  S
O2055     Zr2432   2.388   1_556  S
O2055      H2063   0.966       .  S
O2056     Zr2803   2.375       .  S
O2058      H2062   0.963       .  S
O2059     Zr2431   2.386   1_545  S
O2059      H2064   0.962       .  S
O2060     Zr2810   2.379       .  S
C2077      C2082   1.410       .  A
C2077      H2084   1.083       .  S
C2078      C2079   1.420       .  A
C2079      C2080   1.412       .  A
C2079      C2086   1.519       .  S
C2080      H2085   1.083       .  S
C2081      C2082   1.421       .  A
C2082      C2083   1.520       .  S
C2083      F2087   1.385       .  S
C2083      F2088   1.381       .  S
C2086      F2091   1.382       .  S
C2086      F2092   1.385       .  S
C2093      C2098   1.408       .  A
C2093      H2100   1.082       .  S
C2094      C2095   1.422       .  A
C2095      C2096   1.409       .  A
C2095      C2102   1.521       .  S
C2096      C2097   1.406       .  A
C2096      H2101   1.083       .  S
C2098      C2099   1.520       .  S
C2099      F2105   1.383       .  S
C2102      F2106   1.384       .  S
C2102      F2108   1.383       .  S
C2109      C2110   1.400   1_556  A
C2109      C2114   1.405       .  A
C2109      H2116   1.083       .  S
C2111      C2112   1.404       .  A
C2111      C2118   1.509       .  S
C2112      H2117   1.084       .  S
C2113      C2114   1.425       .  A
C2114      C2115   1.518       .  S
C2115      F2119   1.385       .  S
C2115      F2120   1.382       .  S
C2118      F2123   1.384       .  S
C2118      F2124   1.385       .  S
C2125      C2126   1.405   1_554  A
C2125      H2132   1.083       .  S
C2127      C2128   1.403       .  A
C2128      C2129   1.400       .  A
C2128      H2133   1.083       .  S
C2129      C2130   1.421       .  A
C2130      C2131   1.520       .  S
C2131      F2135   1.383       .  S
C2131      F2136   1.383       .  S
C2134      F2139   1.384       .  S
C2134      F2140   1.385       .  S
C2141      C2142   1.405   1_545  A
C2141      C2902   1.413       .  A
C2141      H2148   1.083       .  S
C2142      C2143   1.421       .  A
C2143      C2900   1.406       .  A
C2143      C2150   1.518       .  S
C2144      C2899   1.409       .  A
C2144      C2145   1.403       .  A
C2144      H2149   1.083       .  S
C2145      C2146   1.426       .  A
C2146      C2897   1.414       .  A
C2146      C2147   1.522       .  S
C2147      F2151   1.385       .  S
C2147      F2152   1.383       .  S
C2147      F2909   1.383       .  S
C2150      F2910   1.382       .  S
C2150      F2155   1.382       .  S
C2150      F2156   1.384       .  S
F2153      C2903   1.384       .  S
F2154      C2906   1.383       .  S
C2157      C2158   1.408       .  A
C2157      C2162   1.411       .  A
C2157      H2164   1.081       .  S
C2158      C2159   1.427       .  A
C2159      C2160   1.416       .  A
C2159      C2922   1.520       .  S
C2160      C2161   1.410       .  A
C2160      H2921   1.082       .  S
C2161      C2162   1.430       .  A
C2162      C2163   1.524       .  S
C2163      F2167   1.385       .  S
C2163      F2924   1.382       .  S
C2163      F2169   1.383       .  S
H2165      C2916   1.082       .  S
C2166      C2915   1.522       .  S
C2166      F2170   1.383       .  S
C2166      F2927   1.383       .  S
C2166      F2928   1.384       .  S
F2168      C2919   1.383       .  S
F2171      C2922   1.383       .  S
F2172      C2922   1.385       .  S
C2173      C2174   1.406       .  A
C2173      C2178   1.411       .  A
C2173      H2180   1.083       .  S
C2174      C2931   1.424       .  A
C2175      C2930   1.425   1_565  A
C2175      C2176   1.412       .  A
C2175      C2182   1.524       .  S
C2176      C2177   1.408   1_565  A
C2176      H2181   1.078       .  S
C2177      C2934   1.428       .  A
C2178      C2933   1.426       .  A
C2178      C2179   1.518       .  S
C2179      F2939   1.385       .  S
C2179      F2940   1.383       .  S
C2179      F2185   1.382       .  S
C2182      F2186   1.380       .  S
C2182      F2943   1.382       .  S
C2182      F2944   1.382       .  S
F2183      C2935   1.385       .  S
F2184      C2935   1.382       .  S
F2187      C2938   1.381       .  S
F2188      C2938   1.382       .  S
C2189      C2190   1.408   1_565  A
C2189      C2194   1.411       .  A
C2189      H2196   1.082       .  S
C2190      C2191   1.424       .  A
C2191      C2192   1.408       .  A
C2191      C2198   1.520       .  S
C2192      C2193   1.405       .  A
C2192      H2197   1.083       .  S
C2193      C2194   1.423   1_545  A
C2194      C2195   1.521       .  S
C2195      F2199   1.384       .  S
C2195      F2200   1.383       .  S
C2195      F2957   1.383       .  S
C2198      F2202   1.384       .  S
C2198      F2959   1.382       .  S
C2198      F2960   1.385       .  S
F2201      C2951   1.383       .  S
F2203      C2954   1.383       .  S
F2204      C2954   1.384       .  S
C2205      C2206   1.403   1_655  A
C2205      C2210   1.411       .  A
C2205      H2212   1.083       .  S
C2207      C2208   1.415       .  A
C2207      C2214   1.519       .  S
C2208      C2209   1.408       .  A
C2208      H2213   1.083       .  S
C2210      C2211   1.517       .  S
C2211      F2215   1.384       .  S
C2211      F2216   1.381       .  S
C2211      F2217   1.384       .  S
C2214      F2218   1.384       .  S
C2214      F2219   1.382       .  S
C2214      F2220   1.384       .  S
C2221      C2222   1.406       .  A
C2221      C2226   1.408       .  A
C2221      H2228   1.084       .  S
C2223      C2224   1.408       .  A
C2223      C2230   1.520       .  S
C2224      H2229   1.083       .  S
C2225      C2226   1.419       .  A
C2226      C2227   1.520       .  S
C2227      F2231   1.385       .  S
C2227      F2232   1.384       .  S
C2227      F2233   1.382       .  S
C2230      F2234   1.382       .  S
C2230      F2235   1.383       .  S
C2230      F2236   1.385       .  S
C2237      C2242   1.410       .  A
C2237      H2244   1.083       .  S
C2238      C2239   1.421   1_455  A
C2239      C2240   1.416       .  A
C2239      C2246   1.518       .  S
C2240      H2245   1.083       .  S
C2241      C2242   1.421       .  A
C2242      C2243   1.518       .  S
C2243      F2247   1.385       .  S
C2243      F2248   1.380       .  S
C2243      F2249   1.383       .  S
C2246      F2250   1.384       .  S
C2246      F2251   1.382       .  S
C2246      F2252   1.383       .  S
C2253      C2254   1.401       .  A
C2253      C2258   1.408       .  A
C2253      H2260   1.083       .  S
C2255      C2256   1.408       .  A
C2255      C2262   1.515       .  S
C2256      H2261   1.084       .  S
C2257      C2258   1.421       .  A
C2258      C2259   1.518       .  S
C2259      F2263   1.384       .  S
C2259      F2264   1.383       .  S
C2259      F2265   1.382       .  S
C2262      F2266   1.376       .  S
C2262      F2267   1.383       .  S
C2262      F2268   1.384       .  S
O2269     Zr2281   2.450       .  S
O2269      C2271   1.288       .  A
O2270      C2271   1.289       .  A
C2271      C2568   1.495       .  S
O2272     Zr2284   2.461   1_455  S
O2272      C2274   1.291       .  A
O2273      C2274   1.292       .  A
C2274      C2584   1.499       .  S
O2275     Zr2284   2.462       .  S
O2275      C2277   1.291       .  A
O2276     Zr2307   2.435       .  S
C2277      C2632   1.487       .  S
O2278     Zr2281   2.441       .  S
O2278      C2280   1.286       .  A
O2279     Zr2308   2.440       .  S
C2280      C2520   1.498       .  S
Zr2281     O2282   2.435       .  S
Zr2281     O2287   2.368       .  S
Zr2281     O2288   2.376       .  S
O2282      H2325   0.990       .  S
O2283      H2324   0.990       .  S
O2283      H2328   0.990       .  S
Zr2284     O2285   2.434       .  S
Zr2284     O2288   2.372       .  S
Zr2284     O2287   2.373       .  S
O2285      H2326   0.990       .  S
O2285      H2329   0.990       .  S
O2286      H2319   0.990       .  S
O2288      H2315   0.962       .  S
O2289     Zr2301   2.448       .  S
O2289      C2291   1.289       .  A
O2290     Zr2308   2.429       .  S
C2291      C2600   1.483       .  S
O2292     Zr2304   2.461       .  S
O2292      C2294   1.294       .  A
O2293     Zr2307   2.416       .  S
C2294      C2552   1.505       .  S
O2295     Zr2304   2.461       .  S
O2295      C2297   1.291       .  A
O2296      C2297   1.294       .  A
C2297      C2539   1.514       .  S
O2298     Zr2301   2.458       .  S
O2298      C2300   1.291       .  A
O2299      C2300   1.288       .  A
C2300      C2619   1.489       .  S
Zr2301     O2302   2.437       .  S
Zr2301     O2309   2.375       .  S
Zr2301     O2310   2.370       .  S
O2302      H2322   0.990       .  S
O2302      H2327   0.990       .  S
O2303      H2323   0.990       .  S
Zr2304     O2305   2.435       .  S
Zr2304     O2310   2.371       .  S
Zr2304     O2309   2.373       .  S
O2305      H2321   0.990       .  S
O2306      H2320   0.990       .  S
O2306      H2330   0.989       .  S
Zr2307     O2312   2.387       .  S
Zr2308     O2311   2.390       .  S
O2309      H2317   0.966       .  S
O2312      H2316   0.960       .  S
O2313      H2318   0.973       .  S
O2331     Zr2343   2.451   1_655  S
O2331      C2333   1.289       .  A
O2332     Zr2369   2.437       .  S
C2333      C2635   1.487       .  S
O2334     Zr2346   2.454       .  S
O2334      C2336   1.292       .  A
O2335     Zr2370   2.424   1_655  S
O2335      C2336   1.285   1_556  A
C2336      C2456   1.490       .  S
O2337     Zr2346   2.455       .  S
O2337      C2339   1.293       .  A
O2338      C2339   1.282       .  A
C2339      C2472   1.498       .  S
O2340     Zr2343   2.458       .  S
O2340      C2342   1.291       .  A
O2341     Zr2370   2.436   1_554  S
O2341      C2342   1.288       .  A
C2342      C2616   1.489       .  S
Zr2343     O2344   2.433   1_455  S
Zr2343     O2349   2.377   1_455  S
Zr2343     O2350   2.371   1_455  S
O2344      H2387   0.990       .  S
O2345      H2386   0.990       .  S
O2345      H2390   0.990       .  S
Zr2346     O2347   2.435       .  S
Zr2346     O2726   2.434   1_554  S
Zr2346     O2350   2.368       .  S
Zr2346     O2349   2.372       .  S
Zr2346     O2752   2.370   1_554  S
Zr2346     O2754   2.373   1_554  S
O2347      H2388   0.990       .  S
O2347      H2391   0.990       .  S
O2348     Zr2724   2.433       .  S
O2348      H2381   0.990       .  S
O2350     Zr2370   2.388   1_654  S
O2350      H2377   0.968       .  S
O2351     Zr2741   2.416       .  S
O2351      C2353   1.282       .  A
O2352      C2731   1.290       .  A
C2353      O2730   1.293       .  A
C2353      C2491   1.487       .  S
O2354     Zr2366   2.447       .  S
O2354      C2356   1.291       .  A
O2355     Zr2747   2.437       .  S
O2355      C2356   1.289       .  A
C2356      C2587   1.490       .  S
O2357     Zr2366   2.458       .  S
O2357      C2359   1.291       .  A
O2358     Zr2748   2.420       .  S
C2359      C2603   1.482       .  S
O2360     Zr2363   2.437       .  S
O2360      C2740   1.286       .  A
O2361     Zr2369   2.432   1_556  S
O2361      C2740   1.288       .  A
C2362      O2738   1.285       .  A
C2362      O2739   1.290       .  A
C2362      C2504   1.489       .  S
Zr2363     O2729   2.425       .  S
Zr2363     O2742   2.436       .  S
Zr2363     O2365   2.434   1_556  S
Zr2363     O2749   2.370       .  S
Zr2363     O2750   2.362       .  S
Zr2363     O2375   2.371   1_556  S
Zr2363     O2373   2.377   1_556  S
O2364     Zr2741   2.435       .  S
O2364      H2384   0.989       .  S
O2364      H2389   0.988       .  S
O2365      H2385   0.990       .  S
Zr2366     O2367   2.435       .  S
Zr2366     O2372   2.375       .  S
Zr2366     O2371   2.371       .  S
O2367      H2383   0.990       .  S
O2368      H2382   0.990       .  S
O2368      H2392   0.990       .  S
Zr2369     O2733   2.434   1_554  S
Zr2369     O2750   2.375   1_554  S
Zr2369     O2375   2.381       .  S
Zr2370     O2736   2.436       .  S
Zr2370     O2754   2.383   1_455  S
O2371     Zr2741   2.371       .  S
O2371      H2379   0.964       .  S
O2372     Zr2741   2.357       .  S
O2372     Zr2747   2.378       .  S
O2374     Zr2724   2.370       .  S
O2374      H2378   0.968       .  S
O2375      H2380   0.962       .  S
O2376     Zr2724   2.379       .  S
O2376     Zr2748   2.390   1_655  S
O2393     Zr2405   2.448       .  S
O2393      C2395   1.287       .  A
O2394      C2395   1.289       .  A
C2395      C2475   1.501       .  S
O2396     Zr2408   2.455   1_545  S
O2397     Zr2432   2.437       .  S
O2397      C2398   1.290       .  A
C2398      C2555   1.507       .  S
O2399     Zr2408   2.441   1_545  S
O2400     Zr2431   2.422   1_544  S
C2401      C2571   1.496       .  S
O2402     Zr2405   2.456       .  S
O2402      C2404   1.292   1_556  A
O2403     Zr2432   2.413       .  S
O2403      C2404   1.282       .  A
C2404      C2507   1.491       .  S
Zr2405     O2406   2.436   1_556  S
Zr2405     O2785   2.433       .  S
Zr2405     O2411   2.377   1_556  S
Zr2405     O2412   2.365   1_556  S
Zr2405     O2813   2.368       .  S
Zr2405     O2815   2.379       .  S
O2406      H2449   0.990       .  S
O2407     Zr2783   2.435       .  S
O2407      H2448   0.989       .  S
O2407      H2452   0.990       .  S
Zr2408     O2410   2.434       .  S
Zr2408     O2436   2.372       .  S
Zr2408     O2438   2.375       .  S
O2409      H2450   0.990       .  S
O2409      H2453   0.989       .  S
O2410      H2443   0.990       .  S
O2412     Zr2432   2.384       .  S
O2412      H2439   0.964       .  S
O2413     Zr2425   2.458       .  S
O2414     Zr2810   2.439       .  S
C2415      C2536   1.516       .  S
O2416     Zr2428   2.444       .  S
O2416      C2796   1.287       .  A
O2417     Zr2431   2.438       .  S
O2417      C2796   1.289   1_556  A
C2418      O2794   1.287       .  A
C2418      O2795   1.289       .  A
C2418      C2459   1.491       .  S
O2419     Zr2428   2.450       .  S
O2419      C2799   1.290       .  A
O2420      C2799   1.282       .  A
C2421      O2797   1.290       .  A
C2421      O2798   1.284       .  A
C2421      C2488   1.480       .  S
O2422     Zr2425   2.473       .  S
O2423     Zr2809   2.417   1_565  S
O2423      C2424   1.283       .  A
C2424      C2523   1.499       .  S
Zr2425     O2427   2.433       .  S
Zr2425     O2437   2.371       .  S
Zr2425     O2435   2.375       .  S
O2426      H2446   0.990       .  S
O2426      H2451   0.990       .  S
O2427      H2447   0.990       .  S
Zr2428     O2807   2.435   1_554  S
Zr2428     O2430   2.435       .  S
Zr2428     O2812   2.378   1_554  S
Zr2428     O2811   2.372   1_554  S
Zr2428     O2438   2.373       .  S
Zr2428     O2436   2.371       .  S
O2429     Zr2806   2.433       .  S
O2429      H2445   0.990       .  S
O2430      H2444   0.990       .  S
O2430      H2454   0.990       .  S
Zr2431     O2801   2.416   1_565  S
Zr2431     O2812   2.387       .  S
Zr2431     O2436   2.388   1_556  S
Zr2432     O2792   2.444   1_554  S
Zr2432     O2813   2.379   1_554  S
O2433     Zr2806   2.372       .  S
O2433      H2441   0.966       .  S
O2434     Zr2806   2.373       .  S
O2434     Zr2809   2.379   1_565  S
O2435     Zr2783   2.361       .  S
O2435     Zr2810   2.382       .  S
O2436      H2440   0.963       .  S
O2437     Zr2783   2.377       .  S
O2437      H2442   0.962       .  S
C2455      C2834   1.405       .  A
C2455      C2460   1.407       .  A
C2455      H2462   1.083       .  S
C2456      C2833   1.403       .  A
C2456      C2457   1.422   1_554  A
C2457      C2458   1.412       .  A
C2457      C2464   1.520       .  S
C2458      C2837   1.405   1_556  A
C2458      H2463   1.083       .  S
C2459      C2836   1.405       .  A
C2459      C2460   1.420       .  A
C2460      C2461   1.520       .  S
C2461      F2465   1.385       .  S
C2461      F2466   1.382       .  S
C2461      F2845   1.384       .  S
C2464      F2846   1.383       .  S
C2464      F2469   1.382       .  S
C2464      F2470   1.385       .  S
F2467      C2839   1.384       .  S
F2468      C2842   1.382       .  S
C2471      C2850   1.405       .  A
C2471      C2476   1.409       .  A
C2471      H2478   1.083       .  S
C2472      C2849   1.405   1_554  A
C2472      C2473   1.425       .  A
C2473      C2474   1.409       .  A
C2473      C2480   1.523       .  S
C2474      C2475   1.408   1_554  A
C2474      H2479   1.082       .  S
C2475      C2854   1.426       .  A
C2476      C2853   1.422       .  A
C2476      C2477   1.518       .  S
C2477      F2859   1.385       .  S
C2477      F2860   1.382       .  S
C2477      F2483   1.383       .  S
C2480      F2484   1.385       .  S
C2480      F2863   1.381       .  S
C2480      F2486   1.383   1_554  S
F2481      C2855   1.385       .  S
F2482      C2855   1.382       .  S
F2485      C2858   1.381       .  S
C2487      C2488   1.400       .  A
C2487      C2492   1.406       .  A
C2487      H2494   1.083       .  S
C2488      C2867   1.416       .  A
C2489      C2866   1.418       .  A
C2489      C2490   1.405       .  A
C2489      C2496   1.514       .  S
C2490      C2869   1.402   1_554  A
C2490      H2495   1.084       .  S
C2491      C2868   1.401       .  A
C2491      C2492   1.426       .  A
C2492      C2493   1.518       .  S
C2493      F2497   1.385       .  S
C2493      F2498   1.381       .  S
C2493      F2877   1.382       .  S
C2496      F2878   1.383       .  S
C2496      F2501   1.384       .  S
C2496      F2502   1.385       .  S
F2499      C2871   1.380       .  S
F2500      C2874   1.383       .  S
C2503      C2504   1.403       .  A
C2503      C2886   1.409       .  A
C2503      H2510   1.083       .  S
C2504      C2883   1.422       .  A
C2505      C2882   1.419       .  A
C2505      C2506   1.404       .  A
C2505      C2890   1.519       .  S
C2506      C2507   1.403   1_556  A
C2506      H2511   1.083       .  S
C2507      C2508   1.426       .  A
C2508      C2881   1.412       .  A
C2508      C2509   1.522       .  S
C2509      F2513   1.384       .  S
C2509      F2514   1.382       .  S
C2509      F2893   1.383       .  S
C2512      C2883   1.519       .  S
C2512      F2894   1.381       .  S
C2512      F2517   1.384       .  S
C2512      F2518   1.385       .  S
F2515      C2887   1.382       .  S
F2516      C2890   1.382       .  S
C2519      C2520   1.404       .  A
C2519      H2526   1.082       .  S
C2520      C2521   1.424       .  A
C2521      C2528   1.521       .  S
C2522      C2523   1.405       .  A
C2522      H2527   1.083       .  S
C2523      C2524   1.426   1_565  A
C2524      C2525   1.523       .  S
C2525      F2529   1.385       .  S
C2525      F2530   1.383       .  S
C2528      F2533   1.382       .  S
C2528      F2534   1.385       .  S
C2535      C2536   1.409   1_545  A
C2535      C2540   1.414       .  A
C2535      H2542   1.082       .  S
C2536      C2537   1.427       .  A
C2537      C2538   1.419       .  A
C2538      C2539   1.409       .  A
C2539      C2540   1.426   1_565  A
C2540      C2541   1.519       .  S
C2541      F2545   1.384       .  S
C2541      F2547   1.382       .  S
C2544      F2548   1.383       .  S
C2551      C2552   1.406   1_545  A
C2551      C2556   1.409       .  A
C2551      H2558   1.082       .  S
C2553      C2554   1.412       .  A
C2553      C2560   1.527       .  S
C2554      C2555   1.409       .  A
C2554      H2559   1.076       .  S
C2556      C2557   1.519       .  S
C2557      F2563   1.382       .  S
C2560      F2564   1.379       .  S
C2567      C2568   1.406       .  A
C2567      C2572   1.411       .  A
C2567      H2574   1.083       .  S
C2568      C2569   1.422       .  A
C2569      C2570   1.408       .  A
C2569      C2576   1.520       .  S
C2570      C2571   1.405       .  A
C2570      H2575   1.083       .  S
C2571      C2572   1.424       .  A
C2572      C2573   1.520       .  S
C2573      F2577   1.384       .  S
C2573      F2578   1.383       .  S
C2576      F2580   1.384       .  S
C2583      C2584   1.408   1_655  A
C2583      C2588   1.415       .  A
C2583      H2590   1.083       .  S
C2585      C2586   1.406       .  A
C2585      C2592   1.519       .  S
C2586      C2587   1.403       .  A
C2586      H2591   1.083       .  S
C2588      C2589   1.518       .  S
C2589      F2593   1.383       .  S
C2589      F2594   1.384       .  S
C2589      F2595   1.382       .  S
C2592      F2596   1.382       .  S
C2592      F2597   1.384       .  S
C2592      F2598   1.384       .  S
C2599      C2600   1.403       .  A
C2599      C2604   1.408       .  A
C2599      H2606   1.084       .  S
C2601      C2602   1.408       .  A
C2601      C2608   1.517       .  S
C2602      H2607   1.083       .  S
C2603      C2604   1.419       .  A
C2604      C2605   1.519       .  S
C2605      F2609   1.384       .  S
C2605      F2610   1.383       .  S
C2605      F2611   1.382       .  S
C2608      F2612   1.381       .  S
C2608      F2613   1.383       .  S
C2608      F2614   1.385       .  S
C2615      C2620   1.409       .  A
C2615      H2622   1.083       .  S
C2616      C2617   1.420   1_455  A
C2617      C2618   1.413       .  A
C2617      C2624   1.519       .  S
C2618      H2623   1.083       .  S
C2619      C2620   1.418       .  A
C2620      C2621   1.518       .  S
C2621      F2625   1.385       .  S
C2621      F2626   1.381       .  S
C2621      F2627   1.384       .  S
C2624      F2628   1.383       .  S
C2624      F2629   1.382       .  S
C2624      F2630   1.384       .  S
C2631      C2632   1.403       .  A
C2631      C2636   1.413       .  A
C2631      H2638   1.083       .  S
C2633      C2634   1.409       .  A
C2633      C2640   1.515       .  S
C2634      H2639   1.084       .  S
C2635      C2636   1.419       .  A
C2636      C2637   1.518       .  S
C2637      F2641   1.385       .  S
C2637      F2642   1.382       .  S
C2637      F2643   1.381       .  S
C2640      F2644   1.376       .  S
C2640      F2645   1.383       .  S
C2640      F2646   1.384       .  S
O2647     Zr2659   2.457       .  S
O2647      C2649   1.289       .  A
O2648      C2649   1.288       .  A
C2649      C2946   1.500       .  S
O2650     Zr2662   2.457       .  S
O2650      C2652   1.291       .  A
O2651      C2652   1.287   1_455  A
C2652      C2962   1.486       .  S
O2653     Zr2662   2.457       .  S
O2653      C2655   1.291       .  A
O2654     Zr2685   2.432       .  S
C2655      C3010   1.489       .  S
O2656     Zr2659   2.451       .  S
O2656      C2658   1.289       .  A
O2657     Zr2686   2.450       .  S
C2658      C2898   1.498       .  S
Zr2659     O2660   2.433       .  S
Zr2659     O2665   2.371       .  S
Zr2659     O2666   2.375       .  S
O2660      H2703   0.990       .  S
O2661      H2702   0.989       .  S
O2661      H2706   0.990       .  S
Zr2662     O2663   2.436       .  S
Zr2662     O2666   2.371       .  S
Zr2662     O2665   2.376       .  S
O2663      H2704   0.990       .  S
O2663      H2707   0.990       .  S
O2664      H2697   0.990       .  S
O2666      H2693   0.962       .  S
O2667     Zr2679   2.452       .  S
O2667      C2669   1.289       .  A
O2668     Zr2686   2.437   1_455  S
C2669      C2978   1.485       .  S
O2670     Zr2682   2.456       .  S
O2670      C2672   1.292       .  A
O2671     Zr2685   2.426       .  S
C2672      C2930   1.502   1_565  S
O2673     Zr2682   2.457       .  S
O2673      C2675   1.290       .  A
O2674      C2675   1.292       .  A
C2675      C2917   1.515       .  S
O2676     Zr2679   2.451       .  S
O2676      C2678   1.289       .  A
O2677      C2678   1.291       .  A
C2678      C2997   1.492       .  S
Zr2679     O2680   2.438       .  S
Zr2679     O2687   2.373       .  S
Zr2679     O2688   2.374       .  S
O2680      H2700   0.990       .  S
O2680      H2705   0.990       .  S
O2681      H2701   0.990       .  S
Zr2682     O2683   2.433       .  S
Zr2682     O2688   2.371       .  S
Zr2682     O2687   2.373       .  S
O2683      H2699   0.990       .  S
O2684      H2698   0.990       .  S
O2684      H2708   0.990       .  S
Zr2685     O2690   2.385       .  S
Zr2686     O2689   2.394       .  S
O2687      H2695   0.967       .  S
O2690      H2694   0.962       .  S
O2691      H2696   0.973       .  S
O2709     Zr2721   2.437   1_655  S
O2709      C2711   1.286       .  A
O2710     Zr2747   2.451       .  S
C2711      C3013   1.483       .  S
O2712     Zr2724   2.458       .  S
O2712      C2714   1.293       .  A
O2713     Zr2748   2.429   1_655  S
O2713      C2714   1.286       .  A
C2714      C2834   1.495       .  S
O2715     Zr2724   2.473       .  S
O2715      C2717   1.295       .  A
O2716      C2717   1.283       .  A
C2717      C2850   1.498       .  S
O2718     Zr2721   2.462       .  S
O2718      C2720   1.291       .  A
O2719     Zr2748   2.434       .  S
O2719      C2720   1.287       .  A
C2720      C2994   1.494       .  S
Zr2721     O2722   2.433   1_455  S
Zr2721     O2727   2.382   1_455  S
Zr2721     O2728   2.368   1_455  S
O2722      H2765   0.990       .  S
O2723      H2764   0.990       .  S
O2723      H2768   0.990       .  S
Zr2724     O2725   2.435       .  S
Zr2724     O2728   2.380       .  S
Zr2724     O2727   2.368       .  S
O2725      H2766   0.990       .  S
O2725      H2769   0.990       .  S
O2726      H2759   0.990       .  S
O2728     Zr2748   2.386   1_655  S
O2728      H2755   0.969       .  S
O2729      C2731   1.284       .  A
C2731      C2869   1.482       .  S
O2732     Zr2744   2.453       .  S
O2732      C2734   1.290       .  A
O2733      C2734   1.288       .  A
C2734      C2965   1.482       .  S
O2735     Zr2744   2.448       .  S
O2735      C2737   1.289       .  A
C2737      C2981   1.483       .  S
O2738     Zr2741   2.433       .  S
O2739     Zr2747   2.437       .  S
C2740      C2882   1.487       .  S
Zr2741     O2743   2.433       .  S
Zr2741     O2753   2.372       .  S
Zr2741     O2751   2.379       .  S
O2742      H2762   0.989       .  S
O2742      H2767   0.988       .  S
O2743      H2763   0.990       .  S
Zr2744     O2745   2.435       .  S
Zr2744     O2750   2.376       .  S
Zr2744     O2749   2.377       .  S
O2745      H2761   0.990       .  S
O2746      H2760   0.990       .  S
O2746      H2770   0.990       .  S
Zr2747     O2753   2.383       .  S
O2749      H2757   0.964       .  S
O2752      H2756   0.970       .  S
O2753      H2758   0.963       .  S
O2771     Zr2783   2.451       .  S
O2771      C2773   1.289       .  A
O2772      C2773   1.289       .  A
C2773      C2853   1.496       .  S
O2774     Zr2786   2.446       .  S
O2775     Zr2810   2.450       .  S
O2775      C2776   1.293       .  A
C2776      C2933   1.511       .  S
O2777     Zr2786   2.450       .  S
O2778     Zr2809   2.424       .  S
C2779      C2949   1.502       .  S
O2780     Zr2783   2.465       .  S
O2780      C2782   1.294       .  A
O2781     Zr2810   2.406       .  S
O2781      C2782   1.281       .  A
C2782      C2885   1.491       .  S
Zr2783     O2784   2.432       .  S
Zr2783     O2789   2.378       .  S
Zr2783     O2790   2.371       .  S
O2784      H2827   0.990       .  S
O2785      H2826   0.989       .  S
O2785      H2830   0.990       .  S
Zr2786     O2788   2.436   1_545  S
Zr2786     O2814   2.369   1_545  S
Zr2786     O2816   2.379   1_545  S
O2787      H2828   0.989       .  S
O2787      H2831   0.989       .  S
O2788      H2821   0.990       .  S
O2790     Zr2810   2.387       .  S
O2790      H2817   0.963       .  S
O2791     Zr2803   2.456       .  S
C2793      C2914   1.514       .  S
O2794     Zr2806   2.442       .  S
O2795     Zr2809   2.437   1_565  S
C2796      C2837   1.491       .  S
O2797     Zr2806   2.447       .  S
C2799      C2866   1.479       .  S
O2800     Zr2803   2.474       .  S
O2801      C2802   1.283   1_545  A
C2802      C2901   1.490       .  S
Zr2803     O2805   2.435       .  S
Zr2803     O2815   2.371       .  S
Zr2803     O2813   2.377       .  S
O2804      H2824   0.990       .  S
O2804      H2829   0.990       .  S
O2805      H2825   0.990       .  S
Zr2806     O2808   2.436       .  S
Zr2806     O2816   2.373       .  S
Zr2806     O2814   2.370       .  S
O2807      H2823   0.990       .  S
O2808      H2822   0.990       .  S
O2808      H2832   0.990       .  S
Zr2809     O2814   2.385   1_545  S
O2811      H2819   0.968       .  S
O2814      H2818   0.963       .  S
O2815      H2820   0.963       .  S
C2833      C2838   1.406       .  A
C2833      H2840   1.083       .  S
C2834      C2835   1.424       .  A
C2835      C2836   1.413       .  A
C2835      C2842   1.520       .  S
C2836      H2841   1.083       .  S
C2837      C2838   1.422       .  A
C2838      C2839   1.520       .  S
C2839      F2843   1.385       .  S
C2839      F2844   1.382       .  S
C2842      F2847   1.382       .  S
C2842      F2848   1.385       .  S
C2849      C2854   1.406       .  A
C2849      H2856   1.082       .  S
C2850      C2851   1.426       .  A
C2851      C2852   1.411       .  A
C2851      C2858   1.520       .  S
C2852      C2853   1.405       .  A
C2852      H2857   1.083       .  S
C2854      C2855   1.521       .  S
C2855      F2861   1.382       .  S
C2858      F2862   1.386       .  S
C2858      F2864   1.382       .  S
C2865      C2866   1.399   1_556  A
C2865      C2870   1.404       .  A
C2865      H2872   1.083       .  S
C2867      C2868   1.404       .  A
C2867      C2874   1.512       .  S
C2868      H2873   1.084       .  S
C2869      C2870   1.422       .  A
C2870      C2871   1.518       .  S
C2871      F2875   1.385       .  S
C2871      F2876   1.381       .  S
C2874      F2879   1.384       .  S
C2874      F2880   1.384       .  S
C2881      C2882   1.404   1_554  A
C2881      H2888   1.083       .  S
C2883      C2884   1.405       .  A
C2884      C2885   1.403       .  A
C2884      H2889   1.083       .  S
C2885      C2886   1.426       .  A
C2886      C2887   1.521       .  S
C2887      F2891   1.385       .  S
C2887      F2892   1.383       .  S
C2890      F2895   1.384       .  S
C2890      F2896   1.384       .  S
C2897      C2898   1.406       .  A
C2897      H2904   1.083       .  S
C2898      C2899   1.423       .  A
C2899      C2906   1.519       .  S
C2900      C2901   1.402       .  A
C2900      H2905   1.083       .  S
C2901      C2902   1.425   1_565  A
C2902      C2903   1.522       .  S
C2903      F2907   1.385       .  S
C2903      F2908   1.382       .  S
C2906      F2911   1.382       .  S
C2906      F2912   1.384       .  S
C2913      C2914   1.407   1_545  A
C2913      C2918   1.411       .  A
C2913      H2920   1.082       .  S
C2914      C2915   1.429       .  A
C2915      C2916   1.421       .  A
C2916      C2917   1.411       .  A
C2917      C2918   1.427   1_565  A
C2918      C2919   1.520       .  S
C2919      F2923   1.384       .  S
C2919      F2925   1.383       .  S
C2922      F2926   1.383       .  S
C2929      C2930   1.406       .  A
C2929      C2934   1.409       .  A
C2929      H2936   1.082       .  S
C2931      C2932   1.412       .  A
C2931      C2938   1.524       .  S
C2932      C2933   1.407       .  A
C2932      H2937   1.074       .  S
C2934      C2935   1.521       .  S
C2935      F2941   1.382       .  S
C2938      F2942   1.379       .  S
C2945      C2946   1.408       .  A
C2945      C2950   1.412       .  A
C2945      H2952   1.082       .  S
C2946      C2947   1.423       .  A
C2947      C2948   1.410       .  A
C2947      C2954   1.521       .  S
C2948      C2949   1.408       .  A
C2948      H2953   1.083       .  S
C2949      C2950   1.424       .  A
C2950      C2951   1.521       .  S
C2951      F2955   1.383       .  S
C2951      F2956   1.383       .  S
C2954      F2958   1.384       .  S
C2961      C2962   1.403       .  A
C2961      C2966   1.409       .  A
C2961      H2968   1.083       .  S
C2963      C2964   1.412       .  A
C2963      C2970   1.518       .  S
C2964      C2965   1.404       .  A
C2964      H2969   1.083       .  S
C2966      C2967   1.518       .  S
C2967      F2971   1.384       .  S
C2967      F2972   1.380       .  S
C2967      F2973   1.384       .  S
C2970      F2974   1.383       .  S
C2970      F2975   1.382       .  S
C2970      F2976   1.385       .  S
C2977      C2978   1.403       .  A
C2977      C2982   1.407       .  A
C2977      H2984   1.084       .  S
C2979      C2980   1.409       .  A
C2979      C2986   1.518       .  S
C2980      H2985   1.083       .  S
C2981      C2982   1.418       .  A
C2982      C2983   1.517       .  S
C2983      F2987   1.383       .  S
C2983      F2988   1.381       .  S
C2983      F2989   1.382       .  S
C2986      F2990   1.382       .  S
C2986      F2991   1.382       .  S
C2986      F2992   1.384       .  S
C2993      C2998   1.406       .  A
C2993      H3000   1.084       .  S
C2994      C2995   1.421   1_455  A
C2995      C2996   1.414       .  A
C2995      C3002   1.519       .  S
C2996      H3001   1.083       .  S
C2997      C2998   1.421       .  A
C2998      C2999   1.518       .  S
C2999      F3003   1.385       .  S
C2999      F3004   1.382       .  S
C2999      F3005   1.383       .  S
C3002      F3006   1.384       .  S
C3002      F3007   1.381       .  S
C3002      F3008   1.383       .  S
C3009      C3010   1.406       .  A
C3009      C3014   1.414       .  A
C3009      H3016   1.083       .  S
C3011      C3012   1.410       .  A
C3011      C3018   1.517       .  S
C3012      H3017   1.084       .  S
C3013      C3014   1.421       .  A
C3014      C3015   1.519       .  S
C3015      F3019   1.385       .  S
C3015      F3020   1.383       .  S
C3015      F3021   1.382       .  S
C3018      F3022   1.378       .  S
C3018      F3023   1.384       .  S
C3018      F3024   1.384       .  S
