geometry optimzed in LAMMPS
_audit_creation_date              2020-11-30 
_audit_creation_method            'lammps2cif' 
_symmetry_space_group_name_H-M    'P1' 
_symmetry_Int_Tables_number       1 
_symmetry_cell_setting            triclinic 
loop_ 
_symmetry_equiv_pos_as_xyz 
  x,y,z 
_cell_length_a                    36.14472345 
_cell_length_b                    76.36126392813836 
_cell_length_c                    76.00771067570494 
_cell_angle_alpha                 90.27040610488264 
_cell_angle_beta                  90.0189697110236 
_cell_angle_gamma                 89.83446196183722 
loop_ 
_atom_site_label 
_atom_site_type_symbol 
_atom_site_fract_x 
_atom_site_fract_y 
_atom_site_fract_z 
_atom_site_charge 
C1          C  0.39489886  0.68878097  0.70316427     0.80300
N2          N  0.42083210  0.70141020  0.70051419    -0.78000
C3          C  0.42959276  0.71275873  0.71365477     0.82800
N4          N  0.41168820  0.71184818  0.72921094    -0.77900
C5          C  0.38529176  0.69967243  0.73200829     0.82900
N6          N  0.37702660  0.68810725  0.71896508    -0.79700
C7          C  0.26352114  0.69484339  0.81882146     0.80300
N8          N  0.28690592  0.69290709  0.80493838    -0.78000
C9          C  0.29477393  0.70673474  0.79439968     0.82800
N10         N  0.27874199  0.72250690  0.79776978    -0.77900
C11         C  0.25517280  0.72462871  0.81148016     0.82900
N12         N  0.24773198  0.71074848  0.82194286    -0.79700
C13         C  0.14476034  0.81547383  0.81856325     0.80300
N14         N  0.12585781  0.81510403  0.80304318    -0.78000
C15         C  0.13080219  0.80172882  0.79141107     0.82800
N16         N  0.15492925  0.78876783  0.79540037    -0.77900
C17         C  0.17383379  0.78887180  0.81071353     0.82900
N18         N  0.16858704  0.80213220  0.82240464    -0.79700
C19         C  0.52214671  0.80578507  0.70265875     0.80300
N20         N  0.02710937  0.80852505  0.71942953    -0.78000
C21         C  0.03687410  0.79508808  0.73006953     0.82800
N22         N  0.53681167  0.77944115  0.72531469    -0.77900
C23         C  0.51259767  0.77666944  0.71198584     0.82900
N24         N  0.50531478  0.78996424  0.70066132    -0.79700
N25         N  0.31666818  0.60457762  0.43810325    -0.27200
N26         N  0.29435260  0.59121517  0.44083794    -0.35100
C27         C  0.29059268  0.58869488  0.45816459     0.01100
C28         C  0.31183809  0.60098652  0.46696937     0.07200
C29         C  0.32779468  0.61096215  0.45377672    -0.05900
H30         H  0.27298723  0.57876661  0.46377924     0.07800
H31         H  0.34609717  0.62203190  0.45541051     0.09000
Cu32       Cu  0.26959066  0.57674616  0.42127350     0.44200
Cu33       Cu  0.32975613  0.61317678  0.41299339     0.42000
Cu34       Cu  0.29556873  0.58502385  0.37689295     0.43900
N35         N  0.25183171  0.56159695  0.40053173    -0.34600
N36         N  0.26213075  0.56407153  0.38405899    -0.28800
C37         C  0.24772164  0.55119556  0.37399188    -0.04900
C38         C  0.22691882  0.54042235  0.38473707     0.07300
C39         C  0.23030314  0.54736321  0.40143889     0.01100
H40         H  0.25208779  0.54977001  0.35997928     0.08700
H41         H  0.21899437  0.54210178  0.41348293     0.07800
N42         N  0.32588789  0.60793823  0.37350240    -0.36000
N43         N  0.33772113  0.61815558  0.38640087    -0.28200
C44         C  0.35463444  0.63218632  0.37945082    -0.03500
C45         C  0.35375728  0.63081675  0.36119326     0.05200
C46         C  0.33521428  0.61517207  0.35804831     0.03300
H47         H  0.36576724  0.64272189  0.38733082     0.08400
H48         H  0.32828602  0.60946190  0.34543999     0.07200
N49         N  0.12761114  0.39868196  0.43719522    -0.27200
N50         N  0.12275938  0.41576779  0.43887753    -0.35100
C51         C  0.11699620  0.41967960  0.45588976     0.01100
C52         C  0.11857595  0.40434936  0.46545579     0.07200
C53         C  0.12540227  0.39125921  0.45319388    -0.05900
H54         H  0.11310851  0.43280940  0.46099210     0.07800
H55         H  0.12859997  0.37740186  0.45567476     0.09000
Cu56       Cu  0.12720741  0.43333280  0.41842607     0.44200
Cu57       Cu  0.13813703  0.38660088  0.41320178     0.42000
Cu58       Cu  0.16310485  0.41639968  0.37771027     0.43900
N59         N  0.14520070  0.44904382  0.39815118    -0.34600
N60         N  0.15960804  0.44296796  0.38336012    -0.28800
C61         C  0.17221085  0.45652523  0.37383171    -0.04900
C62         C  0.16511771  0.47186213  0.38309285     0.07300
C63         C  0.14785597  0.46656203  0.39839614     0.01100
H64         H  0.18627750  0.45523639  0.36133432     0.08700
H65         H  0.13981578  0.47476150  0.40940631     0.07800
N66         N  0.16281681  0.38929778  0.37539052    -0.36000
N67         N  0.15324224  0.37850154  0.38810387    -0.28200
C68         C  0.15616282  0.36192702  0.38220576    -0.03500
C69         C  0.16854054  0.36214397  0.36485102     0.05200
C70         C  0.17230299  0.37987731  0.36112277     0.03300
H71         H  0.14989436  0.35074612  0.39027482     0.08400
H72         H  0.18172198  0.38570341  0.34900480     0.07200
N73         N  0.30832097  0.61853443  0.57008336    -0.27200
N74         N  0.28059396  0.60744043  0.56826826    -0.35100
C75         C  0.27589489  0.60361111  0.55125567     0.01100
C76         C  0.30187422  0.61264175  0.54166491     0.07200
C77         C  0.32201523  0.62213277  0.55398468    -0.05900
H78         H  0.25620860  0.59412243  0.54634429     0.07800
H79         H  0.34598360  0.63021912  0.55155670     0.09000
Cu80       Cu  0.25382807  0.59476246  0.58817907     0.44200
Cu81       Cu  0.32714111  0.62627420  0.59477466     0.42000
Cu82       Cu  0.29662937  0.59460592  0.62902500     0.43900
N83         N  0.24600943  0.57474896  0.60559912    -0.34600
N84         N  0.26307426  0.57404060  0.62090743    -0.28800
C85         C  0.25482927  0.55869983  0.62867996    -0.04900
C86         C  0.23126535  0.54946034  0.61759458     0.07300
C87         C  0.22641527  0.56008136  0.60310657     0.01100
H88         H  0.26518856  0.55461369  0.64136958     0.08700
H89         H  0.21080612  0.55711363  0.59131729     0.07800
N90         N  0.32505761  0.61782461  0.63370966    -0.36000
N91         N  0.33598417  0.62919650  0.62169991    -0.28200
C92         C  0.35200652  0.64290207  0.62988437    -0.03500
C93         C  0.35083301  0.64012962  0.64790764     0.05200
C94         C  0.33383851  0.62399540  0.64972944     0.04900
H95         H  0.36266503  0.65429928  0.62319840     0.08400
H96         H  0.32775261  0.61715846  0.66179521     0.07200
N97         N  0.12811451  0.40217502  0.56923682    -0.27200
N98         N  0.12208567  0.41905934  0.56680360    -0.35100
C99         C  0.11361308  0.42183329  0.54986547     0.01100
C100        C  0.11446760  0.40595034  0.54107665     0.07200
C101        C  0.12405525  0.39373969  0.55374616    -0.05900
H102        H  0.10921371  0.43463739  0.54418970     0.07800
H103        H  0.12847841  0.37984827  0.55178722     0.09000
Cu104      Cu  0.13037090  0.43802739  0.58580484     0.44200
Cu105      Cu  0.14349382  0.39210836  0.59350266     0.42000
Cu106      Cu  0.16822936  0.42468711  0.62729081     0.43900
N107        N  0.15151361  0.45537567  0.60409747    -0.34600
N108        N  0.16622995  0.45062351  0.61925584    -0.28800
C109        C  0.17996133  0.46491322  0.62738068    -0.04900
C110        C  0.17312987  0.47934575  0.61685560     0.07300
C111        C  0.15523194  0.47273669  0.60217553     0.01100
H112        H  0.19432372  0.46476167  0.63986824     0.08700
H113        H  0.14687944  0.47987599  0.59056664     0.07800
N114        N  0.16881244  0.39775295  0.63110412    -0.36000
N115        N  0.15964563  0.38603442  0.61899624    -0.28200
C116        C  0.16309775  0.36990209  0.62585708    -0.03500
C117        C  0.17536336  0.37148719  0.64304160     0.05200
C118        C  0.17855137  0.38935551  0.64591841     0.03300
H119        H  0.15767369  0.35787958  0.61873816     0.08400
H120        H  0.18710921  0.39585206  0.65791296     0.07200
N121        N  0.46381335  0.88141856  0.44911700    -0.27200
N122        N  0.45398804  0.89809311  0.44937325    -0.35100
C123        C  0.44485835  0.90289924  0.46579090     0.01100
C124        C  0.44908824  0.88861059  0.47663793     0.07200
C125        C  0.46148415  0.87518476  0.46567590    -0.05900
H126        H  0.43718879  0.91607990  0.46963222     0.07800
H127        H  0.46856101  0.86196324  0.46949303     0.09000
Cu128      Cu  0.45667050  0.91441187  0.42811545     0.44200
Cu129      Cu  0.48081052  0.86898137  0.42576571     0.42000
Cu130      Cu  0.50032338  0.90044986  0.38931060     0.43900
N131        N  0.46968818  0.93124590  0.40817765    -0.34600
N132        N  0.48689659  0.92650413  0.39363050    -0.28800
C133        C  0.49325136  0.94089637  0.38387475    -0.04900
C134        C  0.47886081  0.95531872  0.39280576     0.07300
C135        C  0.46454542  0.94858215  0.40822318     0.01100
H136        H  0.50758845  0.94087903  0.37138380     0.08700
H137        H  0.45259789  0.95573428  0.41914347     0.07800
N138        N  0.50390277  0.87339336  0.38748630    -0.36000
N139        N  0.49662126  0.86195604  0.40005587    -0.28200
C140        C  0.50094761  0.84564991  0.39337791    -0.03500
C141        C  0.51152087  0.84692722  0.37581060     0.05200
C142        C  0.51302898  0.86475513  0.37271030     0.03300
H143        H  0.49694598  0.83381303  0.40087185     0.08400
H144        H  0.51964549  0.87113516  0.36043901     0.07200
N145        N  0.06312173  0.10126544  0.44235033    -0.27200
N146        N  0.04871513  0.08570974  0.44527469    -0.35100
C147        C  0.04774250  0.08277571  0.46260774     0.01100
C148        C  0.06232096  0.09719135  0.47116298     0.07200
C149        C  0.07146069  0.10884743  0.45791436    -0.05900
H150        H  0.03668032  0.07105149  0.46851872     0.07800
H151        H  0.08349259  0.12172170  0.45945142     0.09000
Cu152      Cu  0.03116865  0.06912517  0.42561681     0.44200
Cu153      Cu  0.06962582  0.11003850  0.41686915     0.42000
Cu154      Cu  0.04921926  0.07798890  0.38030879     0.43900
N155        N  0.02108895  0.05146403  0.40570155    -0.34600
N156        N  0.02887872  0.05405715  0.38894134    -0.28800
C157        C  0.02042026  0.03940838  0.37978324    -0.04900
C158        C  0.00617762  0.02724938  0.39147030     0.07300
C159        C  0.00706110  0.03539795  0.40770439     0.01100
H160        H  0.02368502  0.03787444  0.36571443     0.08700
H161        H  0.99872013  0.02991510  0.42018750     0.07800
N162        N  0.06425669  0.10411613  0.37718454    -0.36000
N163        N  0.07154523  0.11519098  0.39019658    -0.28200
C164        C  0.07976786  0.13089837  0.38345996    -0.03500
C165        C  0.07769661  0.12979789  0.36536387     0.05200
C166        C  0.06751370  0.11266464  0.36181579     0.03300
H167        H  0.08608417  0.14236530  0.39129366     0.08400
H168        H  0.06287062  0.10681487  0.34901422     0.07200
N169        N  0.45122681  0.89197153  0.58102326    -0.27200
N170        N  0.43748804  0.90774903  0.57837703    -0.35100
C171        C  0.43157894  0.90994223  0.56107899     0.01100
C172        C  0.44241960  0.89478790  0.55236571     0.07200
C173        C  0.45458668  0.88362284  0.56549690    -0.05900
H174        H  0.42141994  0.92191781  0.55523144     0.07800
H175        H  0.46545516  0.87049995  0.56395534     0.09000
Cu176      Cu  0.43076507  0.92563387  0.59858541     0.44200
Cu177      Cu  0.46588031  0.88354835  0.60575833     0.42000
Cu178      Cu  0.46494309  0.91564577  0.64240877     0.43900
N179        N  0.43535676  0.94363858  0.61880287    -0.34600
N180        N  0.44854037  0.94039712  0.63467383    -0.28800
C181        C  0.45064226  0.95556258  0.64374165    -0.04900
C182        C  0.43768504  0.96891125  0.63305508     0.07300
C183        C  0.42855749  0.96080386  0.61734870     0.01100
H184        H  0.46164868  0.95681424  0.65692504     0.08700
H185        H  0.41954362  0.96699469  0.60531398     0.07800
N186        N  0.47864528  0.88944493  0.64475431    -0.36000
N187        N  0.47903862  0.87813714  0.63153058    -0.28200
C188        C  0.48828220  0.86228407  0.63759804    -0.03500
C189        C  0.49395919  0.86353419  0.65554234     0.05200
C190        C  0.48753073  0.88099285  0.65963874     0.03300
H191        H  0.49026342  0.85067388  0.62944746     0.08400
H192        H  0.48818139  0.88712688  0.67247975     0.07200
N193        N  0.03976664  0.10723056  0.57422370    -0.27200
N194        N  0.02081353  0.09273945  0.57120907    -0.35100
C195        C  0.02283571  0.08873297  0.55402008     0.01100
C196        C  0.04366174  0.10142300  0.54577358     0.07200
C197        C  0.05394074  0.11298802  0.55893255    -0.05900
H198        H  0.01033596  0.07732686  0.54799007     0.07800
H199        H  0.07132577  0.12441155  0.55760753     0.09000
Cu200      Cu  0.99475064  0.07838754  0.59054509     0.44200
Cu201      Cu  0.04714380  0.11777117  0.59917911     0.42000
Cu202      Cu  0.01935086  0.08936967  0.63507170     0.43900
N203        N  0.98151258  0.06308646  0.61195735    -0.34600
N204        N  0.99202089  0.06659196  0.62824069    -0.28800
C205        C  0.98199480  0.05327893  0.63874145    -0.04900
C206        C  0.96388451  0.04093431  0.62853219     0.07300
C207        C  0.96404245  0.04762357  0.61165773     0.01100
H208        H  0.98754724  0.05267126  0.65270867     0.08700
H209        H  0.95368348  0.04133534  0.59986406     0.07800
N210        N  0.04071036  0.11424582  0.63855746    -0.36000
N211        N  0.05096176  0.12461857  0.62557726    -0.28200
C212        C  0.06281017  0.13988913  0.63241174    -0.03500
C213        C  0.05948148  0.13915550  0.65055664     0.05200
C214        C  0.04549026  0.12265339  0.65395019     0.03300
H215        H  0.07233832  0.15086212  0.62470321     0.08400
H216        H  0.03912010  0.11709356  0.66664875     0.07200
C217        C  0.31332394  0.31504747  0.81256311     0.80300
N218        N  0.33958839  0.30287339  0.81655712    -0.78000
C219        C  0.35669696  0.29372502  0.80348414     0.82800
N220        N  0.34687375  0.29654131  0.78646261    -0.77900
C221        C  0.32047946  0.30850552  0.78229795     0.82900
N222        N  0.30410784  0.31770955  0.79546350    -0.79700
C223        C  0.20824959  0.31530269  0.69201533     0.80300
N224        N  0.19325678  0.29889598  0.69074188    -0.78000
C225        C  0.20291078  0.28619647  0.70248829     0.82800
N226        N  0.22777480  0.29010347  0.71521600    -0.77900
C227        C  0.24242482  0.30625759  0.71682076     0.82900
N228        N  0.23243866  0.31889177  0.70531337    -0.79700
C229        C  0.46199871  0.20340466  0.81699608     0.80300
N230        N  0.44470218  0.21908295  0.81992070    -0.78000
C231        C  0.44850393  0.23247190  0.80827726     0.82800
N232        N  0.46954698  0.22995450  0.79374774    -0.77900
C233        C  0.99003339  0.21529771  0.79104666     0.82900
N234        N  0.98764087  0.20251802  0.80331951    -0.79700
C235        C  0.09083100  0.19541835  0.69997294     0.80300
N236        N  0.11474283  0.20865190  0.69605952    -0.78000
C237        C  0.12028373  0.22190392  0.70776132     0.82800
N238        N  0.10151747  0.22200097  0.72317287    -0.77900
C239        C  0.07701073  0.20925058  0.72711985     0.82900
N240        N  0.07199960  0.19590041  0.71552032    -0.79700
N241        N  0.17128617  0.61136736  0.07093999    -0.27200
N242        N  0.16134836  0.59490743  0.06856586    -0.35100
C243        C  0.15103942  0.59267801  0.05171491     0.01100
C244        C  0.15472472  0.60854172  0.04308538     0.07200
C245        C  0.16784681  0.62006848  0.05569347    -0.05900
H246        H  0.14314059  0.58023899  0.04599577     0.07800
H247        H  0.17515175  0.63366661  0.05385528     0.09000
Cu248      Cu  0.16620781  0.57613413  0.08809870     0.44200
Cu249      Cu  0.19128427  0.62060048  0.09455430     0.42000
Cu250      Cu  0.21475995  0.58838700  0.12827576     0.43900
N251        N  0.18232429  0.55861113  0.10746051    -0.34600
N252        N  0.20117542  0.56279384  0.12178479    -0.28800
C253        C  0.20975280  0.54802906  0.13056563    -0.04900
C254        C  0.19499401  0.53395362  0.12143656     0.07300
C255        C  0.17796804  0.54118159  0.10686809     0.01100
H256        H  0.22573494  0.54757665  0.14259349     0.08700
H257        H  0.16474061  0.53421063  0.09616779     0.07800
N258        N  0.22145570  0.61522181  0.13113699    -0.36000
N259        N  0.21268635  0.62675007  0.11890075    -0.28200
C260        C  0.21962754  0.64294816  0.12492727    -0.03500
C261        C  0.23325921  0.64166256  0.14188105     0.05200
C262        C  0.23424575  0.62384792  0.14532973     0.03300
H263        H  0.21508464  0.65470373  0.11736066     0.08400
H264        H  0.24293612  0.61759607  0.15739221     0.07200
N265        N  0.22340509  0.37977278  0.07086806    -0.27200
N266        N  0.20585387  0.39490810  0.06948885    -0.35100
C267        C  0.19047433  0.39603662  0.05346758     0.01100
C268        C  0.19897672  0.38098716  0.04413124     0.07200
C269        C  0.22006988  0.37093984  0.05555265    -0.05900
H270        H  0.17565059  0.40738063  0.04866628     0.07800
H271        H  0.23231150  0.35825448  0.05291041     0.09000
Cu272      Cu  0.20659763  0.41436212  0.08847645     0.44200
Cu273      Cu  0.25116326  0.37251231  0.09367033     0.42000
Cu274      Cu  0.26437619  0.40861589  0.12574456     0.43900
N275        N  0.21822051  0.43428593  0.10610933    -0.34600
N276        N  0.24057953  0.43254186  0.11972772    -0.28800
C277        C  0.24310046  0.44804605  0.12821509    -0.04900
C278        C  0.22088789  0.46003526  0.11948631     0.07300
C279        C  0.20567722  0.45080423  0.10556343     0.01100
H280        H  0.25921674  0.45027537  0.14000335     0.08700
H281        H  0.18710847  0.45579559  0.09559501     0.07800
N282        N  0.27696455  0.38254023  0.13025978    -0.36000
N283        N  0.27216336  0.36950908  0.11896342    -0.28200
C284        C  0.28150611  0.35438726  0.12686347    -0.03500
C285        C  0.29246080  0.35806186  0.14397553     0.05200
C286        C  0.28944845  0.37607940  0.14554003     0.03300
H287        H  0.27938561  0.34160886  0.12074462     0.08400
H288        H  0.29539029  0.38406082  0.15696325     0.07200
N289        N  0.17304382  0.61214422  0.93958384    -0.27200
N290        N  0.15408067  0.59756257  0.94145307    -0.35100
C291        C  0.14257783  0.59629563  0.95814004     0.01100
C292        C  0.15482112  0.61082235  0.96745745     0.07200
C293        C  0.17408743  0.62067283  0.95513689    -0.05900
H294        H  0.12768156  0.58515445  0.96322968     0.07800
H295        H  0.18825481  0.63295156  0.95721846     0.09000
Cu296      Cu  0.14753017  0.57935239  0.92160499     0.44200
Cu297      Cu  0.19661241  0.61845032  0.91566379     0.42000
Cu298      Cu  0.18618853  0.58697450  0.87849679     0.43900
N299        N  0.15196150  0.56029846  0.90240052    -0.34600
N300        N  0.16683925  0.56265089  0.88671209    -0.28800
C301        C  0.16818012  0.54708068  0.87826767    -0.04900
C302        C  0.15289112  0.53446034  0.88914241     0.07300
C303        C  0.14316833  0.54337239  0.90432638     0.01100
H304        H  0.17994969  0.54504656  0.86533231     0.08700
H305        H  0.13207244  0.53784155  0.91628639     0.07800
N306        N  0.20588821  0.61251410  0.87620655    -0.36000
N307        N  0.21044966  0.62325823  0.88973791    -0.28200
C308        C  0.22334900  0.63861279  0.88396852    -0.03500
C309        C  0.22653679  0.63785184  0.86584582     0.05200
C310        C  0.21553978  0.62098773  0.86138275     0.03300
H311        H  0.22921506  0.64957771  0.89253703     0.08400
H312        H  0.21381633  0.61540793  0.84829975     0.07200
N313        N  0.18887924  0.38189440  0.94088651    -0.27200
N314        N  0.16989151  0.39637592  0.94406980    -0.35100
C315        C  0.16150398  0.39704246  0.96131174     0.01100
C316        C  0.17600918  0.38227112  0.96938586     0.07200
C317        C  0.19332652  0.37303924  0.95598869    -0.05900
H318        H  0.14766439  0.40795736  0.96763243     0.07800
H319        H  0.20885495  0.36097126  0.95718627     0.09000
Cu320      Cu  0.16012430  0.41537725  0.92507037     0.44200
Cu321      Cu  0.20954700  0.37526022  0.91634800     0.42000
Cu322      Cu  0.19825103  0.40726733  0.88155949     0.43900
N323        N  0.16238130  0.43404300  0.90524024    -0.34600
N324        N  0.17718711  0.43133993  0.88955046    -0.28800
C325        C  0.17673142  0.44647200  0.88049332    -0.04900
C326        C  0.16054724  0.45928459  0.89095967     0.07300
C327        C  0.15172980  0.45086919  0.90649685     0.01100
H328        H  0.18759734  0.44800258  0.86733518     0.08700
H329        H  0.13975907  0.45673697  0.91817013     0.07800
N330        N  0.21948443  0.38225924  0.87768768    -0.36000
N331        N  0.22460928  0.37078009  0.89043896    -0.28200
C332        C  0.24013063  0.35619493  0.88367586    -0.03500
C333        C  0.24465150  0.35857918  0.86578326     0.05200
C334        C  0.23108959  0.37518565  0.86243050     0.03300
H335        H  0.24720372  0.34467079  0.89120378     0.08400
H336        H  0.23045609  0.38179429  0.84987319     0.07200
C337        C  0.39668609  0.68236191  0.30860052     0.80300
N338        N  0.37818576  0.68354178  0.29299362    -0.78000
C339        C  0.38705177  0.69611071  0.28111295     0.82800
N340        N  0.41492046  0.70731063  0.28487121    -0.77900
C341        C  0.43350199  0.70644076  0.30029054     0.82900
N342        N  0.42404598  0.69409671  0.31226824    -0.79700
C343        C  0.27120179  0.69666437  0.19154117     0.80300
N344        N  0.25690725  0.71306611  0.18941613    -0.78000
C345        C  0.26458585  0.72603353  0.20116729     0.82800
N346        N  0.28641225  0.72232505  0.21516935    -0.77900
C347        C  0.30062397  0.70608229  0.21763756     0.82900
N348        N  0.29283779  0.69327399  0.20579256    -0.79700
C349        C  0.54000806  0.79429823  0.32155518     0.80300
N350        N  0.52308302  0.77834888  0.32219717    -0.78000
C351        C  0.52857298  0.76625514  0.30920997     0.82800
N352        N  0.55115673  0.77030916  0.29559440    -0.77900
C353        C  0.56776917  0.78610911  0.29459678     0.82900
N354        N  0.56197660  0.79810139  0.30752879    -0.79700
C355        C  0.63809608  0.81038192  0.19979963     0.80300
N356        N  0.16097357  0.79929793  0.19635357    -0.78000
C357        C  0.17516675  0.78732973  0.20768916     0.82800
N358        N  0.16242543  0.78668712  0.22439442    -0.77900
C359        C  0.64037281  0.79724329  0.22795461     0.82900
N360        N  0.62602404  0.80926816  0.21672663    -0.79700
C361        C  0.21394250  0.30523153  0.31828791     0.80300
N362        N  0.23660677  0.30862717  0.30438221    -0.78000
C363        C  0.24928674  0.29530315  0.29412743     0.82800
N364        N  0.23852161  0.27872186  0.29757074    -0.77900
C365        C  0.21546460  0.27506283  0.31109456     0.82900
N366        N  0.20333128  0.28842168  0.32149620    -0.79700
C367        C  0.33092025  0.30766392  0.19789456     0.80300
N368        N  0.31568262  0.30956972  0.21422747    -0.78000
C369        C  0.32447610  0.29833690  0.22738567     0.82800
N370        N  0.34873011  0.28523687  0.22400197    -0.77900
C371        C  0.36407676  0.28306125  0.20790628     0.82900
N372        N  0.35513356  0.29428885  0.19479525    -0.79700
C373        C  0.10007340  0.18611411  0.31576452     0.80300
N374        N  0.12529824  0.19893204  0.31931188    -0.78000
C375        C  0.13255631  0.21141705  0.30712302     0.82800
N376        N  0.11411167  0.21122190  0.29162642    -0.77900
C377        C  0.08850537  0.19882522  0.28803412     0.82900
N378        N  0.08186377  0.18624027  0.30011353    -0.79700
C379        C  0.47105169  0.19301670  0.19585509     0.80300
N380        N  0.45304322  0.20866920  0.19388731    -0.78000
C381        C  0.45584805  0.22132176  0.20650899     0.82800
N382        N  0.47663597  0.21809272  0.22086619    -0.77900
C383        C  0.49435940  0.20275096  0.22315047     0.82900
N384        N  0.49152751  0.19015550  0.21064825    -0.79700
N385        N  0.01937143  0.88315105  0.07645129    -0.27200
N386        N  0.99361257  0.89516997  0.07392386    -0.35100
C387        C  0.98867735  0.89742991  0.05658686     0.01100
C388        C  0.01256772  0.88633805  0.04760511     0.07200
C389        C  0.03150679  0.87739156  0.06071169    -0.05900
H390        H  0.97026328  0.90710214  0.05097674     0.07800
H391        H  0.05304728  0.86768008  0.05908377     0.09000
Cu392      Cu  0.96932973  0.90953879  0.09389685     0.44200
Cu393      Cu  0.03820691  0.87624344  0.10128416     0.42000
Cu394      Cu  0.00809651  0.90489081  0.13730194     0.43900
N395        N  0.96089807  0.92743453  0.11393151    -0.34600
N396        N  0.97585870  0.92617075  0.12972929    -0.28800
C397        C  0.96878566  0.94101710  0.13877620    -0.04900
C398        C  0.94840101  0.95217205  0.12809660     0.07300
C399        C  0.94380144  0.94297993  0.11250588     0.01100
H400        H  0.97890819  0.94365419  0.15190420     0.08700
H401        H  0.93117762  0.94772550  0.10052359     0.07800
N402        N  0.04105361  0.88274686  0.14058147    -0.36000
N403        N  0.05220168  0.87251859  0.12751722    -0.28200
C404        C  0.07245435  0.85928998  0.13412286    -0.03500
C405        C  0.07421341  0.86120072  0.15224972     0.05200
C406        C  0.05380755  0.87620721  0.15584249     0.03300
H407        H  0.08398809  0.84876882  0.12627566     0.08400
H408        H  0.04833601  0.88190470  0.16864056     0.07200
N409        N  0.43176618  0.10248511  0.07096937    -0.27200
N410        N  0.42258944  0.08587095  0.06931890    -0.35100
C411        C  0.42062183  0.08160667  0.05224154     0.01100
C412        C  0.42915068  0.09628373  0.04248733     0.07200
C413        C  0.43579160  0.10938240  0.05481641    -0.05900
H414        H  0.41349914  0.06871150  0.04742194     0.07800
H415        H  0.44361298  0.12279391  0.05225468     0.09000
Cu416      Cu  0.41523944  0.06952306  0.09024558     0.44200
Cu417      Cu  0.43891922  0.11366446  0.09558087     0.42000
Cu418      Cu  0.44139398  0.08185013  0.13343552     0.43900
N419        N  0.42106637  0.05187349  0.11019735    -0.34600
N420        N  0.43176794  0.05581070  0.12632579    -0.28800
C421        C  0.43535651  0.04076919  0.13547845    -0.04900
C422        C  0.42589626  0.02686084  0.12445361     0.07300
C423        C  0.41741388  0.03453216  0.10854327     0.01100
H424        H  0.44442465  0.03999151  0.14901810     0.08700
H425        H  0.41048386  0.02801120  0.09632525     0.07800
N426        N  0.44782664  0.10900862  0.13514821    -0.36000
N427        N  0.44660020  0.12013653  0.12182843    -0.28200
C428        C  0.45136986  0.13649917  0.12799589    -0.03500
C429        C  0.45615314  0.13573588  0.14601407     0.05200
C430        C  0.45354013  0.11810506  0.15008487     0.03300
H431        H  0.45164871  0.14809420  0.11987266     0.08400
H432        H  0.45509750  0.11223888  0.16298025     0.07200
N433        N  0.06273399  0.89417240  0.94638389    -0.27200
N434        N  0.04482498  0.90912441  0.94849825    -0.35100
C435        C  0.03041574  0.90985540  0.96473591     0.01100
C436        C  0.03988022  0.89464446  0.97340163     0.07200
C437        C  0.06072593  0.88502336  0.96145993    -0.05900
H438        H  0.01486539  0.92084351  0.96993191     0.07800
H439        H  0.07294552  0.87224113  0.96348281     0.09000
Cu440      Cu  0.04142620  0.92804563  0.92949366     0.44200
Cu441      Cu  0.08690483  0.88730018  0.92252675     0.42000
Cu442      Cu  0.07819757  0.92003186  0.88663515     0.43900
N443        N  0.03732601  0.94559999  0.90923590    -0.34600
N444        N  0.05060548  0.94303040  0.89325505    -0.28800
C445        C  0.04098257  0.95675990  0.88309915    -0.04900
C446        C  0.02027075  0.96830161  0.89327843     0.07300
C447        C  0.01908243  0.96084883  0.90979712     0.01100
H448        H  0.04724496  0.95789408  0.86923633     0.08700
H449        H  0.00522605  0.96588921  0.92137925     0.07800
N450        N  0.09645006  0.89436441  0.88345490    -0.36000
N451        N  0.09952138  0.88270942  0.89620297    -0.28200
C452        C  0.10997111  0.86726916  0.88919226    -0.03500
C453        C  0.11392083  0.86921731  0.87113744     0.05200
C454        C  0.10495487  0.88661261  0.86806036     0.03300
H455        H  0.11309938  0.85541963  0.89676145     0.08400
H456        H  0.10403317  0.89318055  0.85549353     0.07200
N457        N  0.42345966  0.10769304  0.93829045    -0.27200
N458        N  0.42022825  0.09053053  0.93903387    -0.35100
C459        C  0.42016218  0.08538293  0.95582833     0.01100
C460        C  0.42358227  0.10001221  0.96649626     0.07200
C461        C  0.42549634  0.11402848  0.95485034    -0.05900
H462        H  0.41871043  0.07183687  0.95985036     0.07800
H463        H  0.42956067  0.12769579  0.95801251     0.09000
Cu464      Cu  0.42050932  0.07448820  0.91749074     0.44200
Cu465      Cu  0.42774099  0.12034616  0.91415193     0.42000
Cu466      Cu  0.44669441  0.08961688  0.87592301     0.43900
N467        N  0.43776721  0.05807768  0.89787229    -0.34600
N468        N  0.44896090  0.06317737  0.88222466    -0.28800
C469        C  0.46159045  0.04902995  0.87327918    -0.04900
C470        C  0.45766484  0.03441299  0.88401544     0.07300
C471        C  0.44263492  0.04084254  0.89945394     0.01100
H472        H  0.47309998  0.04944170  0.86015926     0.08700
H473        H  0.43709774  0.03365962  0.91139787     0.07800
N474        N  0.44328829  0.11682044  0.87482263    -0.36000
N475        N  0.43691815  0.12770672  0.88810211    -0.28200
C476        C  0.43816299  0.14424337  0.88206235    -0.03500
C477        C  0.44580193  0.14386163  0.86413956     0.05200
C478        C  0.44844477  0.12614655  0.86011395     0.03300
H479        H  0.43439308  0.15570371  0.89028383     0.08400
H480        H  0.45376510  0.12014873  0.84748774     0.07200
C481        C  0.50126721  0.98243124  0.88577431    -0.05400
C482        C  0.01699363  0.99624156  0.87609069    -0.32800
C483        C  0.50222908  0.01135108  0.87222390     0.36400
C484        C  0.47000505  0.01602933  0.88163411    -0.05700
C485        C  0.45167778  0.00313666  0.89138606    -0.32700
C486        C  0.46701756  0.98657920  0.89358166     0.36400
H487        H  0.04293316  0.99294660  0.86973506     0.16700
O488        O  0.01945767  0.02462865  0.86290700    -0.60200
H489        H  0.42603580  0.00614640  0.89814468     0.16700
O490        O  0.44890307  0.97478843  0.90404087    -0.60300
H491        H  0.43230050  0.96826393  0.89598123     0.43700
H492        H  0.00966733  0.02235458  0.85090303     0.43700
C493        C  0.43037015  0.09758635  0.02309084    -0.05400
C494        C  0.42010042  0.11329817  0.01490418    -0.32800
C495        C  0.41852664  0.11452863  0.99652233     0.36400
C496        C  0.42734141  0.09985962  0.98597198    -0.05700
C497        C  0.43921982  0.08439508  0.99425437    -0.32700
C498        C  0.44059003  0.08313011  0.01256734     0.36400
H499        H  0.41208822  0.12454674  0.02277318     0.16700
O500        O  0.40644823  0.12984460  0.98913322    -0.60200
H501        H  0.44764167  0.07310193  0.98657426     0.16700
O502        O  0.45337910  0.06791816  0.01999561    -0.60300
H503        H  0.43373232  0.05910566  0.01786585     0.43700
H504        H  0.42798963  0.13784851  0.98965798     0.43700
C505        C  0.01895834  0.88620745  0.02829667    -0.05400
C506        C  0.99026795  0.89167603  0.01707994    -0.32800
C507        C  0.99640694  0.89396983  0.99907085     0.36400
C508        C  0.03152024  0.89044832  0.99188484    -0.05700
C509        C  0.05967130  0.88408143  0.00280699    -0.32700
C510        C  0.05376632  0.88204306  0.02089734     0.36400
H511        H  0.96303524  0.89453908  0.02230934     0.16700
O512        O  0.96773876  0.89933485  0.98852437    -0.60200
H513        H  0.08694217  0.88149918  0.99745570     0.16700
O514        O  0.08305516  0.87728405  0.03129879    -0.60300
H515        H  0.08580473  0.86446096  0.02956302     0.43700
H516        H  0.47500140  0.91443853  0.99029625     0.43700
C517        C  0.44002730  0.97112967  0.12901789    -0.05400
C518        C  0.41058739  0.97811351  0.11924001    -0.32800
C519        C  0.40437012  0.99614195  0.11857313     0.36400
C520        C  0.42799052  0.00774187  0.12767495    -0.05700
C521        C  0.45580016  0.00077452  0.13850207    -0.32700
C522        C  0.96331346  0.98238448  0.14006564     0.36400
H523        H  0.39280050  0.96956923  0.11161207     0.16700
O524        O  0.37563935  0.00226979  0.10851925    -0.60200
H525        H  0.47423613  0.00944257  0.14561438     0.16700
O526        O  0.99410949  0.97609165  0.14847964    -0.60300
H527        H  0.98739890  0.97585915  0.16112285     0.43700
H528        H  0.35483016  0.00396110  0.11683664     0.43700
C529        C  0.46166682  0.15063722  0.15826408    -0.05400
C530        C  0.44528124  0.16693250  0.15463744    -0.32800
C531        C  0.44856677  0.18100371  0.16643691     0.36400
C532        C  0.46837779  0.17890177  0.18232797    -0.05700
C533        C  0.48603549  0.16275649  0.18548102    -0.32700
C534        C  0.48282948  0.14876278  0.17367401     0.36400
H535        H  0.42914592  0.16870645  0.14276426     0.16700
O536        O  0.43169776  0.19656989  0.16235574    -0.60200
H537        H  0.50236071  0.16077737  0.19725863     0.16700
O538        O  0.50184465  0.13355014  0.17698282    -0.60300
H539        H  0.48875629  0.12800049  0.18693359     0.43700
H540        H  0.45053454  0.20328342  0.15570014     0.43700
C541        C  0.06738462  0.19938091  0.27132985    -0.05400
C542        C  0.04839300  0.18443104  0.26525902    -0.32800
C543        C  0.02722594  0.18500434  0.24978829     0.36400
C544        C  0.02494160  0.20066978  0.24016818    -0.05700
C545        C  0.04404193  0.21547731  0.24617264    -0.32700
C546        C  0.06511293  0.21496911  0.26148025     0.36400
H547        H  0.04958043  0.17231900  0.27260280     0.16700
O548        O  0.50114694  0.17042026  0.24299831    -0.60200
H549        H  0.04225436  0.22771504  0.23904680     0.16700
O550        O  0.08169889  0.23013048  0.26711320    -0.60300
H551        H  0.10499023  0.23091745  0.26028591     0.43700
H552        H  0.47573727  0.17197430  0.24768319     0.43700
C553        C  0.39123706  0.26883583  0.20552469    -0.05400
C554        C  0.41460908  0.26518618  0.21967772    -0.32800
C555        C  0.43670808  0.25030616  0.21979549     0.36400
C556        C  0.43561903  0.23830265  0.20549228    -0.05700
C557        C  0.41370166  0.24250406  0.19075976    -0.32700
C558        C  0.39177448  0.25776470  0.19065987     0.36400
H559        H  0.41495692  0.27371951  0.23112288     0.16700
O560        O  0.45764259  0.24731144  0.23454889    -0.60200
H561        H  0.41263777  0.23372381  0.17953980     0.16700
O562        O  0.36903615  0.26099556  0.17660210    -0.60300
H563        H  0.38436160  0.26775434  0.16824315     0.43700
H564        H  0.48094175  0.25385079  0.23264115     0.43700
C565        C  0.15960881  0.22549321  0.31029996    -0.05400
C566        C  0.15745345  0.23596489  0.32549773    -0.32800
C567        C  0.17728274  0.25174793  0.32663453     0.36400
C568        C  0.19981098  0.25711095  0.31244835    -0.05700
C569        C  0.20454549  0.24559092  0.29811484    -0.32700
C570        C  0.18428183  0.23014168  0.29683835     0.36400
H571        H  0.13860025  0.23249458  0.33598871     0.16700
O572        O  0.17294755  0.26213692  0.34125402    -0.60200
H573        H  0.22225000  0.24899366  0.28716504     0.16700
O574        O  0.18807422  0.21982110  0.28210317    -0.60300
H575        H  0.17409150  0.22592750  0.27272521     0.43700
H576        H  0.19418734  0.25922076  0.34896275     0.43700
C577        C  0.27242266  0.29841970  0.27847176    -0.05400
C578        C  0.26287667  0.31145477  0.26630377    -0.32800
C579        C  0.28019428  0.31212292  0.24975214     0.36400
C580        C  0.30763875  0.29963201  0.24524797    -0.05700
C581        C  0.31850733  0.28736990  0.25804080    -0.32700
C582        C  0.30122541  0.28669482  0.27439338     0.36400
H583        H  0.24057333  0.32051859  0.26923828     0.16700
O584        O  0.26867858  0.32445276  0.23788141    -0.60200
H585        H  0.33990153  0.27778435  0.25528682     0.16700
O586        O  0.31184376  0.27402497  0.28611575    -0.60300
H587        H  0.33162069  0.27949173  0.29329412     0.43700
H588        H  0.28508586  0.33465738  0.23985811     0.43700
C589        C  0.11929132  0.82421564  0.18954917    -0.05400
C590        C  0.13650430  0.82678376  0.17315587    -0.32800
C591        C  0.12264100  0.83895249  0.16104381     0.36400
C592        C  0.09087440  0.84890564  0.16512894    -0.05700
C593        C  0.07413824  0.84670779  0.18162794    -0.32700
C594        C  0.58963731  0.83336280  0.19217278     0.36400
H595        H  0.16104255  0.81938794  0.16963532     0.16700
O596        O  0.14137825  0.84157449  0.14558894    -0.60200
H597        H  0.54952344  0.85236152  0.18395833     0.16700
O598        O  0.57206423  0.83098910  0.20796795    -0.60300
H599        H  0.58175264  0.84032612  0.21578185     0.43700
H600        H  0.13673580  0.83093404  0.13836483     0.43700
C601        C  0.62492689  0.79512278  0.24596308    -0.05400
C602        C  0.60162731  0.80814205  0.25308819    -0.32800
C603        C  0.58441980  0.80584373  0.26944410     0.36400
C604        C  0.58990214  0.79023709  0.27886202    -0.05700
C605        C  0.61386177  0.77744746  0.27206555    -0.32700
C606        C  0.63143462  0.77975947  0.25587133     0.36400
H607        H  0.59604608  0.82002880  0.24582306     0.16700
O608        O  0.56013116  0.81833332  0.27544755    -0.60200
H609        H  0.61829169  0.76534783  0.27917503     0.16700
O610        O  0.14962929  0.76714169  0.25194593    -0.60300
H611        H  0.13400988  0.75865500  0.24545050     0.43700
H612        H  0.57579848  0.82736299  0.28114353     0.43700
C613        C  0.24655500  0.74356055  0.19987890    -0.05400
C614        C  0.21617586  0.74606163  0.18852476    -0.32800
C615        C  0.19424349  0.76123750  0.18971872     0.36400
C616        C  0.20279717  0.77421127  0.20224408    -0.05700
C617        C  0.23482804  0.77248074  0.21242292    -0.32700
C618        C  0.25681001  0.75744333  0.21126627     0.36400
H619        H  0.20787047  0.73579155  0.17948731     0.16700
O620        O  0.16299106  0.76263899  0.17957320    -0.60200
H621        H  0.24175226  0.78245564  0.22206244     0.16700
O622        O  0.28768861  0.75633333  0.22171906    -0.60300
H623        H  0.27836403  0.75357330  0.23365036     0.43700
H624        H  0.14367876  0.75601690  0.18596868     0.43700
C625        C  0.50770697  0.74944289  0.30855846    -0.05400
C626        C  0.50958315  0.73922322  0.29310004    -0.32800
C627        C  0.48681352  0.72468801  0.29069266     0.36400
C628        C  0.46210241  0.71968808  0.30401139    -0.05700
C629        C  0.46186341  0.72898379  0.31998081    -0.32700
C630        C  0.48428352  0.74382415  0.32230928     0.36400
H631        H  0.52766168  0.74284788  0.28236478     0.16700
O632        O  0.48877395  0.71544951  0.27517680    -0.60200
H633        H  0.44280904  0.72531289  0.33031968     0.16700
O634        O  0.48179934  0.75306848  0.33776725    -0.60300
H635        H  0.50019324  0.74757367  0.34570731     0.43700
H636        H  0.47535729  0.72268527  0.26641975     0.43700
C637        C  0.36571289  0.69831742  0.26455111    -0.05400
C638        C  0.34638412  0.68414985  0.25709819    -0.32800
C639        C  0.32598898  0.68619437  0.24148592     0.36400
C640        C  0.32400593  0.70272090  0.23329572    -0.05700
C641        C  0.34342169  0.71678675  0.24074431    -0.32700
C642        C  0.36417957  0.71473237  0.25606509     0.36400
H643        H  0.34711263  0.67143367  0.26335146     0.16700
O644        O  0.30673157  0.67218962  0.23487337    -0.60200
H645        H  0.34240690  0.72961150  0.23471710     0.16700
O646        O  0.38127670  0.72918624  0.26308039    -0.60300
H647        H  0.40447235  0.73051511  0.25625216     0.43700
H648        H  0.32546822  0.66489665  0.22871499     0.43700
C649        C  0.15187003  0.51521698  0.88668302    -0.05400
C650        C  0.18177221  0.50644677  0.87875340    -0.32800
C651        C  0.18409483  0.48808605  0.87908077     0.36400
C652        C  0.15632309  0.47828140  0.88754774    -0.05700
C653        C  0.12532282  0.48705251  0.89439675    -0.32700
C654        C  0.12278400  0.50530159  0.89386416     0.36400
H655        H  0.20443213  0.51384042  0.87318880     0.16700
O656        O  0.21514048  0.48003645  0.87251261    -0.60200
H657        H  0.10328660  0.47972976  0.90059246     0.16700
O658        O  0.09212405  0.51333616  0.90086478    -0.60300
H659        H  0.07580923  0.51578344  0.89066896     0.43700
H660        H  0.21117941  0.47940758  0.85961456     0.43700
C661        C  0.17914499  0.37907587  0.98854703    -0.05400
C662        C  0.21234777  0.37234450  0.99542458    -0.32800
C663        C  0.21851789  0.37190157  0.01361587     0.36400
C664        C  0.19105573  0.37806746  0.02525462    -0.05700
C665        C  0.15684851  0.38353153  0.01842527    -0.32700
C666        C  0.15072902  0.38404289  0.00023138     0.36400
H667        H  0.23455587  0.36841053  0.98668332     0.16700
O668        O  0.25236211  0.36653452  0.01975919    -0.60200
H669        H  0.13512652  0.38794184  0.02722996     0.16700
O670        O  0.11681832  0.38923439  0.99398850    -0.60300
H671        H  0.11524376  0.40198853  0.99646167     0.43700
H672        H  0.26799687  0.37718468  0.01974508     0.43700
C673        C  0.30276627  0.34533781  0.15784199    -0.05400
C674        C  0.31931997  0.32933602  0.15310365    -0.32800
C675        C  0.32882377  0.31694144  0.16587369     0.36400
C676        C  0.32165102  0.32038985  0.18384028    -0.05700
C677        C  0.30496429  0.33637822  0.18850545    -0.32700
C678        C  0.29568046  0.34878040  0.17577943     0.36400
H679        H  0.32515201  0.32642107  0.13942103     0.16700
O680        O  0.34489751  0.30151660  0.16053933    -0.60200
H681        H  0.29897247  0.33940461  0.20215031     0.16700
O682        O  0.27786326  0.36379996  0.18102054    -0.60300
H683        H  0.29712485  0.37105989  0.18682080     0.43700
H684        H  0.32411526  0.29321108  0.15903018     0.43700
C685        C  0.15107799  0.61160461  0.02397595    -0.05400
C686        C  0.17694615  0.62212079  0.01521512    -0.32800
C687        C  0.17757491  0.62289523  0.99678301     0.36400
C688        C  0.15154085  0.61325419  0.98682986    -0.05700
C689        C  0.12369242  0.60407718  0.99580909    -0.32700
C690        C  0.12347434  0.60310731  0.01413851     0.36400
H691        H  0.19818642  0.62892751  0.02259709     0.16700
O692        O  0.20489519  0.63238208  0.98878198    -0.60200
H693        H  0.10247767  0.59709027  0.98860775     0.16700
O694        O  0.09661215  0.59341796  0.02226745    -0.60300
H695        H  0.07741043  0.60201108  0.02586153     0.43700
H696        H  0.22639197  0.62432079  0.98795541     0.43700
C697        C  0.21360450  0.47868343  0.12359405    -0.05400
C698        C  0.17808332  0.48535386  0.12031395    -0.32800
C699        C  0.17113047  0.50330790  0.12097186     0.36400
C700        C  0.20004234  0.51504097  0.12469786    -0.05700
C701        C  0.23488831  0.50837344  0.12947894    -0.32700
C702        C  0.24178572  0.49025245  0.12901795     0.36400
H703        H  0.15575713  0.47662167  0.11666240     0.16700
O704        O  0.13619205  0.50930048  0.11727270    -0.60200
H705        H  0.25740795  0.51723903  0.13246029     0.16700
O706        O  0.27686513  0.48420906  0.13228838    -0.60300
H707        H  0.27858913  0.48338650  0.14528291     0.43700
H708        H  0.12442041  0.51127974  0.12890709     0.43700
C709        C  0.24357476  0.65605564  0.15403017    -0.05400
C710        C  0.27058111  0.65302453  0.16690987    -0.32800
C711        C  0.28010851  0.66602507  0.17910036     0.36400
C712        C  0.26245921  0.68256883  0.17861686    -0.05700
C713        C  0.23566767  0.68561719  0.16555343    -0.32700
C714        C  0.22633951  0.67262565  0.15330250     0.36400
H715        H  0.28466274  0.64050125  0.16752728     0.16700
O716        O  0.30729577  0.66243260  0.19115331    -0.60200
H717        H  0.22138986  0.69808654  0.16486915     0.16700
O718        O  0.19894082  0.67603404  0.14130141    -0.60300
H719        H  0.21050850  0.68371589  0.13238139     0.43700
H720        H  0.29530322  0.65500125  0.20013076     0.43700
C721        C  0.45070790  0.15912027  0.85213312    -0.05400
C722        C  0.43771460  0.17578105  0.85724498    -0.32800
C723        C  0.44127363  0.19033997  0.84616995     0.36400
C724        C  0.45813912  0.18851416  0.82950268    -0.05700
C725        C  0.47189182  0.17195713  0.82460834    -0.32700
C726        C  0.46840825  0.15744617  0.83563247     0.36400
H727        H  0.42427217  0.17762650  0.86983667     0.16700
O728        O  0.42889114  0.20632022  0.85203264    -0.60200
H729        H  0.00127642  0.17331468  0.81658758     0.16700
O730        O  0.48394415  0.14191212  0.83030507    -0.60300
H731        H  0.46723995  0.13731622  0.82100472     0.43700
H732        H  0.40183007  0.20626816  0.84984612     0.43700
C733        C  0.01248103  0.21306895  0.77483491    -0.05400
C734        C  0.02674187  0.22809351  0.76676808    -0.32800
C735        C  0.04785778  0.22695834  0.75145679     0.36400
C736        C  0.05488736  0.21051905  0.74354922    -0.05700
C737        C  0.53267870  0.19646139  0.74920933    -0.32700
C738        C  0.51198571  0.19700356  0.76483373     0.36400
H739        H  0.02173046  0.24094145  0.77240868     0.16700
O740        O  0.06010297  0.24218344  0.74394814    -0.60200
H741        H  0.53375195  0.18434635  0.74175054     0.16700
O742        O  0.49270488  0.18243787  0.76991508    -0.60300
H743        H  0.51062572  0.17532544  0.77675775     0.43700
H744        H  0.08272674  0.24537824  0.75059270     0.43700
C745        C  0.18521221  0.26851737  0.70251524    -0.05400
C746        C  0.16304967  0.26284686  0.68833398    -0.32800
C747        C  0.14391639  0.24681176  0.68909153     0.36400
C748        C  0.14609163  0.23644021  0.70432624    -0.05700
C749        C  0.16955160  0.24159804  0.71799497    -0.32700
C750        C  0.18906102  0.25728368  0.71723836     0.36400
H751        H  0.15982386  0.27101251  0.67681901     0.16700
O752        O  0.12111068  0.24207394  0.67547691    -0.60200
H753        H  0.17169768  0.23368160  0.72976050     0.16700
O754        O  0.21081069  0.26164403  0.73138742    -0.60300
H755        H  0.19388062  0.26738125  0.73991890     0.43700
H756        H  0.13693792  0.23507438  0.66740757     0.43700
C757        C  0.29437132  0.32524434  0.82661353    -0.05400
C758        C  0.31085505  0.32700734  0.84328911    -0.32800
C759        C  0.29455880  0.33752303  0.85633413     0.36400
C760        C  0.26116753  0.34639408  0.85285857    -0.05700
C761        C  0.24420063  0.34431832  0.83643010    -0.32700
C762        C  0.26021188  0.33376288  0.82343382     0.36400
H763        H  0.33704817  0.32067417  0.84608223     0.16700
O764        O  0.31232218  0.33964092  0.87214418    -0.60200
H765        H  0.21831415  0.35094490  0.83363948     0.16700
O766        O  0.24220408  0.33204457  0.80763391    -0.60300
H767        H  0.22651166  0.32148297  0.80889510     0.43700
H768        H  0.32892012  0.34982710  0.87048321     0.43700
C769        C  0.38375916  0.27978991  0.80750577    -0.05400
C770        C  0.37516485  0.26672934  0.81978748    -0.32800
C771        C  0.39705057  0.25153580  0.82109649     0.36400
C772        C  0.42839042  0.24942926  0.81018122    -0.05700
C773        C  0.43865045  0.26340899  0.79919157    -0.32700
C774        C  0.41643763  0.27830552  0.79763002     0.36400
H775        H  0.35014500  0.26777304  0.82757372     0.16700
O776        O  0.38650026  0.23859557  0.83246694    -0.60200
H777        H  0.46321291  0.26252642  0.79106559     0.16700
O778        O  0.42675070  0.29133788  0.78628127    -0.60300
H779        H  0.41971906  0.28706359  0.77440479     0.43700
H780        H  0.36846220  0.23138312  0.82580969     0.43700
C781        C  0.30622024  0.31013837  0.76396687    -0.05400
C782        C  0.27934139  0.32300349  0.76010656    -0.32800
C783        C  0.26029627  0.32288862  0.74403572     0.36400
C784        C  0.26777528  0.30970795  0.73157541    -0.05700
C785        C  0.29638761  0.29773226  0.73476510    -0.32700
C786        C  0.31577713  0.29791517  0.75068462     0.36400
H787        H  0.27163158  0.33270803  0.76988647     0.16700
O788        O  0.23200535  0.33459759  0.74140236    -0.60200
H789        H  0.30256828  0.28760359  0.72515803     0.16700
O790        O  0.34282218  0.28556303  0.75330055    -0.60300
H791        H  0.32951675  0.27478909  0.75681489     0.43700
H792        H  0.24406064  0.34528988  0.73680872     0.43700
C793        C  0.06786058  0.15325039  0.66340003    -0.05400
C794        C  0.09740233  0.16469760  0.66023297    -0.32800
C795        C  0.10587360  0.17822047  0.67208923     0.36400
C796        C  0.08403215  0.18080075  0.68732016    -0.05700
C797        C  0.05461422  0.16918746  0.69046387    -0.32700
C798        C  0.04643238  0.15559880  0.67870924     0.36400
H799        H  0.11443340  0.16300304  0.64861906     0.16700
O800        O  0.13561133  0.18874772  0.66858094    -0.60200
H801        H  0.03724601  0.17073845  0.70197857     0.16700
O802        O  0.01677530  0.14498685  0.68214991    -0.60300
H803        H  0.99482581  0.15152691  0.67785737     0.43700
H804        H  0.15698848  0.18293124  0.67431375     0.43700
C805        C  0.44001173  0.98802831  0.63587551    -0.05400
C806        C  0.96282352  0.99436922  0.64523483    -0.32800
C807        C  0.97180800  0.01219033  0.64426013     0.36400
C808        C  0.95070589  0.02337553  0.63346322    -0.05700
C809        C  0.91869962  0.01692389  0.62533325    -0.32700
C810        C  0.41582753  0.99940100  0.62688263     0.36400
H811        H  0.98100781  0.98564321  0.65240156     0.16700
O812        O  0.00336642  0.01806720  0.65234616    -0.60200
H813        H  0.40637212  0.02555656  0.61791892     0.16700
O814        O  0.38524995  0.99315357  0.61823109    -0.60300
H815        H  0.36655211  0.99114680  0.62754731     0.43700
H816        H  0.99607454  0.02041146  0.66471177     0.43700
C817        C  0.06456613  0.09949265  0.49042728    -0.05400
C818        C  0.05361517  0.11536847  0.49827093    -0.32800
C819        C  0.04857369  0.11651137  0.51654894     0.36400
C820        C  0.05419362  0.10161473  0.52706498    -0.05700
C821        C  0.06776475  0.08619659  0.51936029    -0.32700
C822        C  0.07331856  0.08510656  0.50120315     0.36400
H823        H  0.04683630  0.12655695  0.49015981     0.16700
O824        O  0.03507133  0.13171958  0.52378294    -0.60200
H825        H  0.07334216  0.07481645  0.52741705     0.16700
O826        O  0.08757034  0.06997679  0.49406150    -0.60300
H827        H  0.06807006  0.06099437  0.49554605     0.43700
H828        H  0.05713457  0.13909107  0.52595163     0.43700
C829        C  0.08365999  0.14412340  0.35270964    -0.05400
C830        C  0.06217881  0.14492454  0.33740007    -0.32800
C831        C  0.06653960  0.15861724  0.32543884     0.36400
C832        C  0.09326787  0.17181765  0.32856800    -0.05700
C833        C  0.11469971  0.17091934  0.34397038    -0.32700
C834        C  0.11029009  0.15719873  0.35587447     0.36400
H835        H  0.04145080  0.13502420  0.33478930     0.16700
O836        O  0.04473846  0.15872049  0.31066591    -0.60200
H837        H  0.13558759  0.18069739  0.34672354     0.16700
O838        O  0.13298470  0.15646532  0.37031371    -0.60300
H839        H  0.15440710  0.14918461  0.36658285     0.43700
H840        H  0.02197661  0.16516214  0.31413447     0.43700
C841        C  0.44533628  0.88875511  0.49602285    -0.05400
C842        C  0.47215905  0.88049635  0.50644757    -0.32800
C843        C  0.47133331  0.88208496  0.52483523     0.36400
C844        C  0.44309282  0.89193980  0.53307614    -0.05700
C845        C  0.41584218  0.89987192  0.52262205    -0.32700
C846        C  0.41673505  0.89831471  0.50429064     0.36400
H847        H  0.49477527  0.87342173  0.50029916     0.16700
O848        O  0.49980465  0.87509774  0.53447505    -0.60200
H849        H  0.39373663  0.90737661  0.52867992     0.16700
O850        O  0.38957982  0.90630442  0.49457551    -0.60300
H851        H  0.37045934  0.89720476  0.49274537     0.43700
H852        H  0.49503868  0.86231328  0.53473902     0.43700
C853        C  0.99253821  0.00931073  0.38824997    -0.05400
C854        C  0.46537104  0.00424327  0.39536171    -0.32800
C855        C  0.45726148  0.98644101  0.39579227     0.36400
C856        C  0.48241201  0.97417062  0.38863225    -0.05700
C857        C  0.00273988  0.97923761  0.37863042    -0.32700
C858        C  0.01251295  0.99703234  0.37812006     0.36400
H859        H  0.44684276  0.01336782  0.40189900     0.16700
O860        O  0.42535089  0.98119444  0.40394595    -0.60200
H861        H  0.02003539  0.96977678  0.37184771     0.16700
O862        O  0.04363305  0.00196235  0.36913138    -0.60300
H863        H  0.03519351  0.00401298  0.35689812     0.43700
H864        H  0.40693694  0.97993812  0.39438054     0.43700
C865        C  0.51967194  0.83286279  0.36266554    -0.05400
C866        C  0.54274025  0.83674750  0.34834108    -0.32800
C867        C  0.54959657  0.82449645  0.33499884     0.36400
C868        C  0.53367164  0.80761743  0.33574557    -0.05700
C869        C  0.51101328  0.80360278  0.35025687    -0.32700
C870        C  0.50403215  0.81598762  0.36361114     0.36400
H871        H  0.55572807  0.84945964  0.34734548     0.16700
O872        O  0.57210146  0.82931770  0.32133799    -0.60200
H873        H  0.49819489  0.79084387  0.35124826     0.16700
O874        O  0.48038193  0.81168580  0.37699494    -0.60300
H875        H  0.49502596  0.80406776  0.38494541     0.43700
H876        H  0.55576891  0.83564206  0.31304995     0.43700
C877        C  0.18382370  0.35710993  0.65545913    -0.05400
C878        C  0.16196659  0.34192502  0.65548461    -0.32800
C879        C  0.16926512  0.32816829  0.66720105     0.36400
C880        C  0.19917928  0.32936880  0.67912115    -0.05700
C881        C  0.22127253  0.34453475  0.67879267    -0.32700
C882        C  0.21373131  0.35829947  0.66724441     0.36400
H883        H  0.13866397  0.34082936  0.64658163     0.16700
O884        O  0.14617196  0.31395583  0.66723710    -0.60200
H885        H  0.24487064  0.34580736  0.68748539     0.16700
O886        O  0.23696436  0.37247761  0.66700066    -0.60300
H887        H  0.23097564  0.37926476  0.67775944     0.43700
H888        H  0.15523014  0.30627890  0.65757580     0.43700
C889        C  0.18609357  0.49754836  0.61933349    -0.05400
C890        C  0.22109645  0.50080380  0.62669048    -0.32800
C891        C  0.23589088  0.51777668  0.62682488     0.36400
C892        C  0.21533373  0.53178752  0.61974571    -0.05700
C893        C  0.17963707  0.52860798  0.61324581    -0.32700
C894        C  0.16490301  0.51173371  0.61312041     0.36400
H895        H  0.23784108  0.49005399  0.63149813     0.16700
O896        O  0.27115303  0.52030700  0.63297599    -0.60200
H897        H  0.16317983  0.53925761  0.60800079     0.16700
O898        O  0.12986924  0.50923901  0.60666197    -0.60300
H899        H  0.11339282  0.51006785  0.61705894     0.43700
H900        H  0.28745915  0.51837157  0.62265770     0.43700
C901        C  0.11514482  0.40287240  0.48474484    -0.05400
C902        C  0.08881639  0.41324991  0.49347996    -0.32800
C903        C  0.08695515  0.41354118  0.51182511     0.36400
C904        C  0.11203184  0.40352966  0.52181430    -0.05700
C905        C  0.13738966  0.39255108  0.51309813    -0.32700
C906        C  0.13914853  0.39220423  0.49466232     0.36400
H907        H  0.06987894  0.42137376  0.48603306     0.16700
O908        O  0.06097644  0.42396954  0.51986799    -0.60200
H909        H  0.15723761  0.38496017  0.52057153     0.16700
O910        O  0.16649055  0.38263714  0.48656874    -0.60300
H911        H  0.15731106  0.37039263  0.48641236     0.43700
H912        H  0.03993252  0.41609813  0.52242491     0.43700
C913        C  0.20056103  0.31967814  0.32980866    -0.05400
C914        C  0.19026395  0.31610035  0.34722318    -0.32800
C915        C  0.17925275  0.32952822  0.35872937     0.36400
C916        C  0.17792176  0.34711137  0.35289885    -0.05700
C917        C  0.18689070  0.35047304  0.33519251    -0.32700
C918        C  0.19804341  0.33705039  0.32375965     0.36400
H919        H  0.19159024  0.30282436  0.35216082     0.16700
O920        O  0.17018009  0.32511114  0.37562046    -0.60200
H921        H  0.18538043  0.36358609  0.32995782     0.16700
O922        O  0.20618179  0.34114414  0.30664197    -0.60300
H923        H  0.18256956  0.33978707  0.30016385     0.43700
H924        H  0.19401385  0.32471203  0.38206878     0.43700
C925        C  0.31430460  0.60356592  0.48627388    -0.05400
C926        C  0.32148706  0.62031094  0.49328607    -0.32800
C927        C  0.31919944  0.62343140  0.51145934     0.36400
C928        C  0.30954073  0.60971522  0.52282476    -0.05700
C929        C  0.30475578  0.59280996  0.51592327    -0.32700
C930        C  0.30747913  0.58961661  0.49792561     0.36400
H931        H  0.32723890  0.63120338  0.48465252     0.16700
O932        O  0.32475177  0.64004293  0.51783637    -0.60200
H933        H  0.29856817  0.58193653  0.52453519     0.16700
O934        O  0.30309957  0.57277665  0.49195766    -0.60300
H935        H  0.32841362  0.56774944  0.49161991     0.43700
H936        H  0.30007543  0.64574012  0.51750906     0.43700
C937        C  0.20862571  0.52376960  0.38039227    -0.05400
C938        C  0.22960721  0.50974189  0.37380099    -0.32800
C939        C  0.21495446  0.49275870  0.37344632     0.36400
C940        C  0.17874719  0.48975936  0.37965785    -0.05700
C941        C  0.15699035  0.50408046  0.38500369    -0.32700
C942        C  0.17169693  0.52097502  0.38541167     0.36400
H943        H  0.25827456  0.51172179  0.37016568     0.16700
O944        O  0.23758508  0.47903362  0.36887780    -0.60200
H945        H  0.12900797  0.50204177  0.38966446     0.16700
O946        O  0.15040942  0.53454441  0.39164537    -0.60300
H947        H  0.13952479  0.54002563  0.38102729     0.43700
H948        H  0.23767765  0.47886130  0.35583160     0.43700
C949        C  0.36648728  0.64375741  0.34776962    -0.05400
C950        C  0.35392067  0.64221497  0.33030208    -0.32800
C951        C  0.36361216  0.65445508  0.31745104     0.36400
C952        C  0.38653130  0.66878016  0.32178753    -0.05700
C953        C  0.39986915  0.67013556  0.33912647    -0.32700
C954        C  0.39037230  0.65781585  0.35196419     0.36400
H955        H  0.33583959  0.63162341  0.32643611     0.16700
O956        O  0.35101309  0.65197232  0.30060166    -0.60200
H957        H  0.41774144  0.68088288  0.34289022     0.16700
O958        O  0.40489550  0.65977346  0.36850340    -0.60300
H959        H  0.42826025  0.65292508  0.36838395     0.43700
H960        H  0.32552063  0.65683083  0.30052779     0.43700
C961        C  0.51464500  0.82038848  0.69041976    -0.05400
C962        C  0.52518359  0.83746772  0.69525767    -0.32800
C963        C  0.51929950  0.85158683  0.68399739     0.36400
C964        C  0.50186534  0.84889616  0.66764092    -0.05700
C965        C  0.49166920  0.83182450  0.66271721    -0.32700
C966        C  0.49794267  0.81765621  0.67387941     0.36400
H967        H  0.53831505  0.83998038  0.70782695     0.16700
O968        O  0.53141725  0.86784618  0.68905126    -0.60200
H969        H  0.47830982  0.82934061  0.65021136     0.16700
O970        O  0.48876043  0.80117022  0.66816421    -0.60300
H971        H  0.46146908  0.80052026  0.66924324     0.43700
H972        H  0.55703261  0.86868760  0.68445574     0.43700
C973        C  0.12278647  0.85554025  0.85773825    -0.05400
C974        C  0.11091815  0.85776925  0.84027002    -0.32800
C975        C  0.11835692  0.84512714  0.82732905     0.36400
C976        C  0.13781379  0.82966274  0.83168987    -0.05700
C977        C  0.15023204  0.82759631  0.84909079    -0.32700
C978        C  0.14284947  0.84026594  0.86202294     0.36400
H979        H  0.09532848  0.86929438  0.83654766     0.16700
O980        O  0.10624658  0.84810119  0.81049874    -0.60200
H981        H  0.16554454  0.81599101  0.85285699     0.16700
O982        O  0.15674235  0.83783319  0.87862266    -0.60300
H983        H  0.14124313  0.82852473  0.88390033     0.43700
H984        H  0.63508813  0.85289119  0.80312012     0.43700
C985        C  0.10828571  0.80042449  0.77514384    -0.05400
C986        C  0.09086935  0.81534562  0.76814370    -0.32800
C987        C  0.06823096  0.81407341  0.75318039     0.36400
C988        C  0.06221604  0.79761013  0.74516896    -0.05700
C989        C  0.08014711  0.78284097  0.75204039    -0.32700
C990        C  0.10299491  0.78409489  0.76671339     0.36400
H991        H  0.09461180  0.82802990  0.77432564     0.16700
O992        O  0.56658524  0.82854961  0.74484850    -0.60200
H993        H  0.07634146  0.77004389  0.74610182     0.16700
O994        O  0.11839257  0.76899139  0.77317643    -0.60300
H995        H  0.14054700  0.76677773  0.76577661     0.43700
H996        H  0.58478603  0.83484082  0.73746039     0.43700
C997        C  0.25499905  0.67993477  0.83060814    -0.05400
C998        C  0.23888754  0.68347328  0.84703895    -0.32800
C999        C  0.22973835  0.67001274  0.85857763     0.36400
C1000       C  0.23651502  0.65239478  0.85385530    -0.05700
C1001       C  0.25238302  0.64875083  0.83735620    -0.32700
C1002       C  0.26183490  0.66231746  0.82581258     0.36400
H1003       H  0.23306040  0.69682362  0.85107731     0.16700
O1004       O  0.21213238  0.67428979  0.87399531    -0.60200
H1005       H  0.25770055  0.63533591  0.83339132     0.16700
O1006       O  0.27637423  0.65811028  0.80966694    -0.60300
H1007       H  0.30323657  0.65639135  0.81174301     0.43700
H1008       H  0.23137260  0.67972683  0.88154207     0.43700
C1009       C  0.23610608  0.74163802  0.81415535    -0.05400
C1010       C  0.25336977  0.75720008  0.80874301    -0.32800
C1011       C  0.23417325  0.77315954  0.80901629     0.36400
C1012       C  0.19727649  0.77372043  0.81474120    -0.05700
C1013       C  0.18043536  0.75841470  0.82084366    -0.32700
C1014       C  0.19951049  0.74243961  0.82061068     0.36400
H1015       H  0.28141744  0.75689881  0.80372149     0.16700
O1016       O  0.25074587  0.78788124  0.80245662    -0.60200
H1017       H  0.15163255  0.75865904  0.82480759     0.16700
O1018       O  0.18119643  0.72755359  0.82558537    -0.60300
H1019       H  0.16951457  0.72301517  0.81467112     0.43700
H1020       H  0.26323794  0.79337626  0.81267406     0.43700
C1021       C  0.38474592  0.67627651  0.68883486    -0.05400
C1022       C  0.35658481  0.66400913  0.69187767    -0.32800
C1023       C  0.34525602  0.65233232  0.67876360     0.36400
C1024       C  0.36254099  0.65237229  0.66211887    -0.05700
C1025       C  0.39071466  0.66460194  0.65897281    -0.32700
C1026       C  0.40192412  0.67643453  0.67209828     0.36400
H1027       H  0.34254998  0.66356361  0.70445407     0.16700
O1028       O  0.31635386  0.64132948  0.68233191    -0.60200
H1029       H  0.40437713  0.66495673  0.64629991     0.16700
O1030       O  0.42925126  0.68822172  0.66821384    -0.60300
H1031       H  0.45275122  0.68219788  0.67123029     0.43700
H1032       H  0.29388920  0.64771707  0.67842783     0.43700
C1033       C  0.45526692  0.72731346  0.71093026    -0.05400
C1034       C  0.44757705  0.73977799  0.69797335    -0.32800
C1035       C  0.46625076  0.75584221  0.69782009     0.36400
C1036       C  0.49385072  0.75939972  0.71053731    -0.05700
C1037       C  0.50276565  0.74629024  0.72282902    -0.32700
C1038       C  0.48337629  0.73053494  0.72324767     0.36400
H1039       H  0.42539744  0.73752487  0.68864207     0.16700
O1040       O  0.45640706  0.76805499  0.68551119    -0.60200
H1041       H  0.52402528  0.74839199  0.73265326     0.16700
O1042       O  0.49178265  0.71838367  0.73589834    -0.60300
H1043       H  0.47923019  0.72257517  0.74673492     0.43700
H1044       H  0.43500493  0.77440497  0.69068909     0.43700
C1045       C  0.36320984  0.70071364  0.74836289    -0.05400
C1046       C  0.35893747  0.71714220  0.75649842    -0.32800
C1047       C  0.33753269  0.71916876  0.77159908     0.36400
C1048       C  0.31949766  0.70459911  0.77898537    -0.05700
C1049       C  0.32445918  0.68801255  0.77113838    -0.32700
C1050       C  0.34605482  0.68601114  0.75591100     0.36400
H1051       H  0.37179835  0.72867479  0.75096919     0.16700
O1052       O  0.33441934  0.73555756  0.77893160    -0.60200
H1053       H  0.31102435  0.67660371  0.77660668     0.16700
O1054       O  0.35018303  0.66967737  0.74858470    -0.60300
H1055       H  0.37327126  0.66492295  0.75378167     0.43700
H1056       H  0.35386994  0.73606305  0.78812651     0.43700
C1057       C  0.89332076  0.68596233  0.70310669     0.80300
N1058       N  0.91852267  0.69866039  0.69960412    -0.78000
C1059       C  0.92938108  0.70978752  0.71250579     0.82800
N1060       N  0.91411665  0.70867507  0.72865965    -0.77900
C1061       C  0.88843127  0.69639680  0.73233451     0.82900
N1062       N  0.87815112  0.68490145  0.71951313    -0.79700
C1063       C  0.76769395  0.69274634  0.81961320     0.80300
N1064       N  0.79240351  0.69035352  0.80629926    -0.78000
C1065       C  0.80271781  0.70404201  0.79605414     0.82800
N1066       N  0.78767300  0.72006222  0.79908445    -0.77900
C1067       C  0.76291572  0.72271504  0.81220524     0.82900
N1068       N  0.75306406  0.70897249  0.82239719    -0.79700
C1069       C  0.65417513  0.81406782  0.81728981     0.80300
N1070       N  0.63778913  0.81402221  0.80115900    -0.78000
C1071       C  0.64501623  0.80107035  0.78933889     0.82800
N1072       N  0.66902480  0.78820701  0.79373052    -0.77900
C1073       C  0.68528585  0.78792725  0.80971605     0.82900
N1074       N  0.67762609  0.80073604  0.82161427    -0.79700
C1075       C  0.00441925  0.80575966  0.70540438     0.80300
N1076       N  0.54611419  0.80825821  0.71619744    -0.78000
C1077       C  0.55359213  0.79512198  0.72753196     0.82800
N1078       N  0.02372521  0.77885389  0.72656813    -0.77900
C1079       C  0.00114154  0.77580141  0.71268729     0.82900
N1080       N  0.99154462  0.78935047  0.70215949    -0.79700
N1081       N  0.80795735  0.60580730  0.43851983    -0.27200
N1082       N  0.78816569  0.59167186  0.44161919    -0.35100
C1083       C  0.78683013  0.58878497  0.45894927     0.01100
C1084       C  0.80713172  0.60163438  0.46742782     0.07200
C1085       C  0.81989998  0.61236277  0.45401255    -0.05900
H1086       H  0.77139113  0.57821493  0.46481390     0.07800
H1087       H  0.83652514  0.62404468  0.45538463     0.09000
Cu1088     Cu  0.76348233  0.57669716  0.42250261     0.44200
Cu1089     Cu  0.81618650  0.61474364  0.41301994     0.42000
Cu1090     Cu  0.78419682  0.58489583  0.37738800     0.43900
N1091       N  0.74504378  0.56102345  0.40236103    -0.34600
N1092       N  0.75335579  0.56343460  0.38562824    -0.28800
C1093       C  0.73817420  0.55038257  0.37605950    -0.04900
C1094       C  0.71895740  0.53955536  0.38742140     0.07300
C1095       C  0.72411971  0.54666445  0.40395309     0.01100
H1096       H  0.74048417  0.54901959  0.36193068     0.08700
H1097       H  0.71400537  0.54158763  0.41631422     0.07800
N1098       N  0.81099560  0.60870951  0.37344468    -0.36000
N1099       N  0.82171677  0.61941953  0.38618418    -0.28200
C1100       C  0.83707923  0.63370416  0.37900220    -0.03500
C1101       C  0.83657953  0.63196939  0.36080126     0.05200
C1102       C  0.81956080  0.61592744  0.35784504     0.03300
H1103       H  0.84748668  0.64455346  0.38668477     0.08400
H1104       H  0.81381421  0.60984407  0.34526552     0.07200
N1105       N  0.62969581  0.39694429  0.43782321    -0.27200
N1106       N  0.62064311  0.41359652  0.43985125    -0.35100
C1107       C  0.61255205  0.41661644  0.45682489     0.01100
C1108       C  0.61692357  0.40112130  0.46596328     0.07200
C1109       C  0.62784787  0.38889566  0.45349620    -0.05900
H1110       H  0.60505667  0.42928421  0.46220014     0.07800
H1111       H  0.63396560  0.37519121  0.45558731     0.09000
Cu1112     Cu  0.62209877  0.43164194  0.41972848     0.44200
Cu1113     Cu  0.64439290  0.38629418  0.41380882     0.42000
Cu1114     Cu  0.65133790  0.41644256  0.37677901     0.43900
N1115       N  0.63583498  0.44809299  0.39929548    -0.34600
N1116       N  0.64729465  0.44276277  0.38365766    -0.28800
C1117       C  0.65790067  0.45681720  0.37428897    -0.04900
C1118       C  0.65278667  0.47170185  0.38458427     0.07300
C1119       C  0.63856502  0.46557261  0.40028516     0.01100
H1120       H  0.66966328  0.45610672  0.36122901     0.08700
H1121       H  0.63289910  0.47314866  0.41205033     0.07800
N1122       N  0.65870552  0.38947258  0.37486387    -0.36000
N1123       N  0.65669277  0.37870563  0.38836041    -0.28200
C1124       C  0.66393496  0.36232150  0.38286711    -0.03500
C1125       C  0.67079153  0.36255882  0.36487355     0.05200
C1126       C  0.66712984  0.38014837  0.36036734     0.03300
H1127       H  0.66437003  0.35129239  0.39166343     0.08400
H1128       H  0.67052412  0.38594215  0.34753039     0.07200
N1129       N  0.79913222  0.61746457  0.57055459    -0.27200
N1130       N  0.77163944  0.60634309  0.56816061    -0.35100
C1131       C  0.76829750  0.60271664  0.55100573     0.01100
C1132       C  0.79486022  0.61199975  0.54200407     0.07200
C1133       C  0.81394911  0.62133478  0.55476912    -0.05900
H1134       H  0.74912048  0.59326191  0.54558761     0.07800
H1135       H  0.83802453  0.62948904  0.55286128     0.09000
Cu1136     Cu  0.74344517  0.59373055  0.58774705     0.44200
Cu1137     Cu  0.81673762  0.62487091  0.59548489     0.42000
Cu1138     Cu  0.78413607  0.59392017  0.62956177     0.43900
N1139       N  0.73359914  0.57435173  0.60571687    -0.34600
N1140       N  0.74975486  0.57374583  0.62125323    -0.28800
C1141       C  0.73999595  0.55873755  0.62927345    -0.04900
C1142       C  0.71633778  0.54956492  0.61813591     0.07300
C1143       C  0.71312222  0.55994410  0.60334257     0.01100
H1144       H  0.74941052  0.55488051  0.64219428     0.08700
H1145       H  0.69806175  0.55697337  0.59139767     0.07800
N1146       N  0.81411369  0.61664985  0.63437024    -0.36000
N1147       N  0.82613902  0.62767934  0.62231392    -0.28200
C1148       C  0.84381906  0.64095245  0.63038398    -0.03500
C1149       C  0.84289137  0.63826805  0.64847044     0.05200
C1150       C  0.82350844  0.62270196  0.65035382     0.04900
H1151       H  0.85602200  0.65184348  0.62347160     0.08400
H1152       H  0.81571775  0.61618892  0.66234394     0.07200
N1153       N  0.62568004  0.39953725  0.56940311    -0.27200
N1154       N  0.62190267  0.41641500  0.56605106    -0.35100
C1155       C  0.61369596  0.41851534  0.54899999     0.01100
C1156       C  0.61232926  0.40221050  0.54113431     0.07200
C1157       C  0.62042605  0.39041716  0.55438777    -0.05900
H1158       H  0.61049863  0.43107559  0.54263739     0.07800
H1159       H  0.62274830  0.37633441  0.55317465     0.09000
Cu1160     Cu  0.63089060  0.43625094  0.58403079     0.44200
Cu1161     Cu  0.63902333  0.39026991  0.59422914     0.42000
Cu1162     Cu  0.65938368  0.42440760  0.62722503     0.43900
N1163       N  0.64511792  0.45449552  0.60292452    -0.34600
N1164       N  0.65621211  0.45026689  0.61890147    -0.28800
C1165       C  0.66552188  0.46499317  0.62763878    -0.04900
C1166       C  0.65963644  0.47917884  0.61662859     0.07300
C1167       C  0.64683064  0.47194438  0.60104348     0.01100
H1168       H  0.67642520  0.46531171  0.64089108     0.08700
H1169       H  0.64070436  0.47874062  0.58892771     0.07800
N1170       N  0.66031657  0.39760518  0.63206434    -0.36000
N1171       N  0.65304005  0.38534405  0.62023597    -0.28200
C1172       C  0.65668387  0.36954243  0.62778740    -0.03500
C1173       C  0.66692105  0.37182715  0.64526035     0.05200
C1174       C  0.66868162  0.38989969  0.64742982     0.03300
H1175       H  0.65275566  0.35727423  0.62088227     0.08400
H1176       H  0.67540174  0.39715022  0.65922241     0.07200
N1177       N  0.95795504  0.88032176  0.44958458    -0.27200
N1178       N  0.95011968  0.89721627  0.45019323    -0.35100
C1179       C  0.94294615  0.90199618  0.46682495     0.01100
C1180       C  0.94625087  0.88744888  0.47741613     0.07200
C1181       C  0.95616286  0.87387957  0.46608579    -0.05900
H1182       H  0.93659872  0.91525260  0.47093156     0.07800
H1183       H  0.96155221  0.86039123  0.46956945     0.09000
Cu1184     Cu  0.95126446  0.91365839  0.42889673     0.44200
Cu1185     Cu  0.97114494  0.86795761  0.42579590     0.42000
Cu1186     Cu  0.98572403  0.89957630  0.38835972     0.43900
N1187       N  0.96035846  0.93058824  0.40845710    -0.34600
N1188       N  0.97420384  0.92577142  0.39314623    -0.28800
C1189       C  0.97947572  0.94018304  0.38325258    -0.04900
C1190       C  0.96790479  0.95472464  0.39291415     0.07300
C1191       C  0.95627043  0.94799263  0.40885039     0.01100
H1192       H  0.99152416  0.94011269  0.37022524     0.08700
H1193       H  0.94727022  0.95520119  0.42035681     0.07800
N1194       N  0.99075177  0.87251952  0.38708619    -0.36000
N1195       N  0.98526355  0.86116654  0.39994646    -0.28200
C1196       C  0.99062598  0.84484622  0.39354653    -0.03500
C1197       C  0.00000380  0.84600765  0.37586065     0.05200
C1198       C  0.99975365  0.86377481  0.37237141     0.03300
H1199       H  0.98831261  0.83310090  0.40134275     0.08400
H1200       H  0.00524863  0.87003669  0.35991411     0.07200
N1201       N  0.55787481  0.10301711  0.44250073    -0.27200
N1202       N  0.54361759  0.08737180  0.44514517    -0.35100
C1203       C  0.54242190  0.08416988  0.46242198     0.01100
C1204       C  0.55671885  0.09849794  0.47120396     0.07200
C1205       C  0.56591064  0.11037173  0.45818880    -0.05900
H1206       H  0.53170104  0.07226769  0.46811563     0.07800
H1207       H  0.57800794  0.12320293  0.45995999     0.09000
Cu1208     Cu  0.52727080  0.07078004  0.42532973     0.44200
Cu1209     Cu  0.56529424  0.11236020  0.41730495     0.42000
Cu1210     Cu  0.54811907  0.08003634  0.38076494     0.43900
N1211       N  0.52019909  0.05294333  0.40535161    -0.34600
N1212       N  0.52921076  0.05573327  0.38877487    -0.28800
C1213       C  0.52303903  0.04095344  0.37943388    -0.04900
C1214       C  0.50898896  0.02849979  0.39082837     0.07300
C1215       C  0.50760163  0.03659117  0.40707213     0.01100
H1216       H  0.52780967  0.03950059  0.36545350     0.08700
H1217       H  0.49881603  0.03087185  0.41937691     0.07800
N1218       N  0.56124972  0.10630936  0.37772944    -0.36000
N1219       N  0.56757171  0.11759602  0.39066721    -0.28200
C1220       C  0.57487379  0.13336235  0.38379045    -0.03500
C1221       C  0.57306653  0.13200877  0.36569163     0.05200
C1222       C  0.56413779  0.11471887  0.36230290     0.03300
H1223       H  0.58037907  0.14500703  0.39150081     0.08400
H1224       H  0.56014831  0.10864650  0.34955574     0.07200
N1225       N  0.94340107  0.89087429  0.58201321    -0.27200
N1226       N  0.93028601  0.90670171  0.57895965    -0.35100
C1227       C  0.92585662  0.90873164  0.56154177     0.01100
C1228       C  0.93700840  0.89343547  0.55313914     0.07200
C1229       C  0.94788737  0.88235719  0.56661475    -0.05900
H1230       H  0.91628149  0.92067594  0.55541881     0.07800
H1231       H  0.95830289  0.86912020  0.56541319     0.09000
Cu1232     Cu  0.92195108  0.92492103  0.59883753     0.44200
Cu1233     Cu  0.95474232  0.88250872  0.60723098     0.42000
Cu1234     Cu  0.95104959  0.91513446  0.64342541     0.43900
N1235       N  0.92577900  0.94320025  0.61894924    -0.34600
N1236       N  0.93735055  0.93994768  0.63509861    -0.28800
C1237       C  0.93996488  0.95515057  0.64405519    -0.04900
C1238       C  0.92899195  0.96857258  0.63300796     0.07300
C1239       C  0.92045146  0.96046206  0.61721709     0.01100
H1240       H  0.95000652  0.95635864  0.65741674     0.08700
H1241       H  0.91295982  0.96670846  0.60497702     0.07800
N1242       N  0.96184824  0.88882630  0.64654358    -0.36000
N1243       N  0.96292237  0.87723327  0.63356515    -0.28200
C1244       C  0.96980197  0.86135426  0.64025645    -0.03500
C1245       C  0.97343001  0.86300786  0.65827425     0.05200
C1246       C  0.96815323  0.88060462  0.66183669     0.03300
H1247       H  0.97207981  0.84948335  0.63250277     0.08400
H1248       H  0.96817935  0.88698559  0.67457051     0.07200
N1249       N  0.54204768  0.10811785  0.57445989    -0.27200
N1250       N  0.52372469  0.09340433  0.57171551    -0.35100
C1251       C  0.52545910  0.08922687  0.55459050     0.01100
C1252       C  0.54543443  0.10203307  0.54610995     0.07200
C1253       C  0.55553811  0.11386894  0.55904214    -0.05900
H1254       H  0.51306382  0.07770307  0.54874345     0.07800
H1255       H  0.57209265  0.12553526  0.55746628     0.09000
Cu1256     Cu  0.49825427  0.07910038  0.59113471     0.44200
Cu1257     Cu  0.54895150  0.11902088  0.59915072     0.42000
Cu1258     Cu  0.52246614  0.09037287  0.63530514     0.43900
N1259       N  0.48508038  0.06384013  0.61247398    -0.34600
N1260       N  0.49539642  0.06748817  0.62874271    -0.28800
C1261       C  0.48553390  0.05420442  0.63930381    -0.04900
C1262       C  0.46777242  0.04172284  0.62912175     0.07300
C1263       C  0.46795631  0.04830108  0.61220999     0.01100
H1264       H  0.49108441  0.05367693  0.65327459     0.08700
H1265       H  0.45793613  0.04188241  0.60041966     0.07800
N1266       N  0.54289282  0.11542520  0.63848115    -0.36000
N1267       N  0.55234779  0.12586686  0.62542580    -0.28200
C1268       C  0.56316799  0.14134478  0.63210200    -0.03500
C1269       C  0.56008096  0.14067325  0.65023702     0.05200
C1270       C  0.54733861  0.12397908  0.65379647     0.03300
H1271       H  0.57174488  0.15240575  0.62426936     0.08400
H1272       H  0.54138919  0.11839258  0.66652547     0.07200
C1273       C  0.81592057  0.31599827  0.81330200     0.80300
N1274       N  0.84214576  0.30376961  0.81728326    -0.78000
C1275       C  0.85842549  0.29423472  0.80425579     0.82800
N1276       N  0.84782655  0.29670096  0.78731498    -0.77900
C1277       C  0.82143608  0.30861505  0.78311926     0.82900
N1278       N  0.80583046  0.31824413  0.79621412    -0.79700
C1279       C  0.70666241  0.31578024  0.69366484     0.80300
N1280       N  0.69232583  0.29929060  0.69235794    -0.78000
C1281       C  0.70371396  0.28643737  0.70349421     0.82800
N1282       N  0.72975037  0.29017130  0.71570792    -0.77900
C1283       C  0.74393186  0.30642735  0.71740051     0.82900
N1284       N  0.73209450  0.31929227  0.70648554    -0.79700
C1285       C  0.96778290  0.20505449  0.81837539     0.80300
N1286       N  0.94990597  0.22063430  0.82092310    -0.78000
C1287       C  0.95218997  0.23356942  0.80870666     0.82800
N1288       N  0.97232868  0.23068587  0.79392523    -0.77900
C1289       C  0.48652936  0.21448674  0.79051241     0.82900
N1290       N  0.48265345  0.20122443  0.80214137    -0.79700
C1291       C  0.58750838  0.19749071  0.69930805     0.80300
N1292       N  0.61277449  0.21031539  0.69611138    -0.78000
C1293       C  0.61886171  0.22305501  0.70828901     0.82800
N1294       N  0.59936461  0.22300714  0.72348647    -0.77900
C1295       C  0.57369876  0.21061236  0.72677276     0.82900
N1296       N  0.56805509  0.19781232  0.71465834    -0.79700
N1297       N  0.66744619  0.60922358  0.07237900    -0.27200
N1298       N  0.65654533  0.59290367  0.07001497    -0.35100
C1299       C  0.64759337  0.59058702  0.05299896     0.01100
C1300       C  0.65338772  0.60623220  0.04425409     0.07200
C1301       C  0.66622703  0.61772660  0.05694334    -0.05900
H1302       H  0.63925398  0.57821920  0.04726156     0.07800
H1303       H  0.67461796  0.63117617  0.05506490     0.09000
Cu1304     Cu  0.65930329  0.57435852  0.08980439     0.44200
Cu1305     Cu  0.68536120  0.61845178  0.09636568     0.42000
Cu1306     Cu  0.70980310  0.58620543  0.12981161     0.43900
N1307       N  0.67858130  0.55660473  0.10823592    -0.34600
N1308       N  0.69813065  0.56059137  0.12240614    -0.28800
C1309       C  0.70897125  0.54564446  0.13029556    -0.04900
C1310       C  0.69503145  0.53164961  0.12073190     0.07300
C1311       C  0.67613282  0.53914462  0.10683609     0.01100
H1312       H  0.72590180  0.54502473  0.14201756     0.08700
H1313       H  0.66287011  0.53240072  0.09600169     0.07800
N1314       N  0.71550452  0.61310559  0.13297061    -0.36000
N1315       N  0.70605205  0.62462707  0.12083398    -0.28200
C1316       C  0.71267898  0.64084840  0.12686596    -0.03500
C1317       C  0.72696893  0.63958607  0.14367482     0.05200
C1318       C  0.72861845  0.62177818  0.14708675     0.03300
H1319       H  0.70789099  0.65262431  0.11935266     0.08400
H1320       H  0.73825146  0.61557751  0.15901598     0.07200
N1321       N  0.72272545  0.37579691  0.07236999    -0.27200
N1322       N  0.70565707  0.39102801  0.07080229    -0.35100
C1323       C  0.69034079  0.39207323  0.05479390     0.01100
C1324       C  0.69843621  0.37687745  0.04566624     0.07200
C1325       C  0.71918865  0.36680441  0.05717410    -0.05900
H1326       H  0.67637423  0.40355877  0.04976106     0.07800
H1327       H  0.73152597  0.35412828  0.05458183     0.09000
Cu1328     Cu  0.70811564  0.41103750  0.08904220     0.44200
Cu1329     Cu  0.75120707  0.36897201  0.09495390     0.42000
Cu1330     Cu  0.76767717  0.40651170  0.12534219     0.43900
N1331       N  0.72162046  0.43169237  0.10536545    -0.34600
N1332       N  0.74442664  0.43034699  0.11884200    -0.28800
C1333       C  0.74750774  0.44611579  0.12676342    -0.04900
C1334       C  0.72528201  0.45789063  0.11774493     0.07300
C1335       C  0.70951212  0.44823267  0.10425123     0.01100
H1336       H  0.76384274  0.44863700  0.13842184     0.08700
H1337       H  0.69046885  0.45287815  0.09431639     0.07800
N1338       N  0.78066352  0.38065056  0.13036479    -0.36000
N1339       N  0.77465310  0.36718394  0.11974132    -0.28200
C1340       C  0.78479083  0.35239607  0.12798651    -0.03500
C1341       C  0.79756473  0.35675878  0.14461697     0.05200
C1342       C  0.79480212  0.37480795  0.14554842     0.03300
H1343       H  0.78192831  0.33939231  0.12245025     0.08400
H1344       H  0.80193749  0.38323918  0.15647735     0.07200
N1345       N  0.66670921  0.61197238  0.94031121    -0.27200
N1346       N  0.64872757  0.59709679  0.94219334    -0.35100
C1347       C  0.63956186  0.59505182  0.95912944     0.01100
C1348       C  0.65244542  0.60931134  0.96858995     0.07200
C1349       C  0.66964414  0.61984617  0.95617198    -0.05900
H1350       H  0.62579010  0.58360725  0.96427327     0.07800
H1351       H  0.68351573  0.63218049  0.95843506     0.09000
Cu1352     Cu  0.64053262  0.57938151  0.92207090     0.44200
Cu1353     Cu  0.68652401  0.61954393  0.91588903     0.42000
Cu1354     Cu  0.68504993  0.58595202  0.88026756     0.43900
N1355       N  0.64507802  0.56017122  0.90307543    -0.34600
N1356       N  0.66224403  0.56213049  0.88787912    -0.28800
C1357       C  0.66324150  0.54651879  0.87953517    -0.04900
C1358       C  0.64550523  0.53422637  0.88997646     0.07300
C1359       C  0.63457829  0.54344251  0.90480774     0.01100
H1360       H  0.67672762  0.54419874  0.86703344     0.08700
H1361       H  0.62182748  0.53822410  0.91652946     0.07800
N1362       N  0.70229053  0.61178276  0.87718647    -0.36000
N1363       N  0.70206167  0.62367154  0.88993859    -0.28200
C1364       C  0.71300449  0.63909400  0.88337955    -0.03500
C1365       C  0.72065861  0.63690817  0.86570546     0.05200
C1366       C  0.71384328  0.61940697  0.86220542     0.03300
H1367       H  0.71511441  0.65106351  0.89097578     0.08400
H1368       H  0.71605262  0.61282629  0.84961033     0.07200
N1369       N  0.69525627  0.38206581  0.94263221    -0.27200
N1370       N  0.67558428  0.39627569  0.94614808    -0.35100
C1371       C  0.66690459  0.39634222  0.96335413     0.01100
C1372       C  0.68187709  0.38146179  0.97099758     0.07200
C1373       C  0.69984606  0.37280414  0.95745851    -0.05900
H1374       H  0.65221485  0.40685386  0.96992535     0.07800
H1375       H  0.71565688  0.36078901  0.95834502     0.09000
Cu1376     Cu  0.66425661  0.41565875  0.92773011     0.44200
Cu1377     Cu  0.71642129  0.37600973  0.91815052     0.42000
Cu1378     Cu  0.70525276  0.40883977  0.88467479     0.43900
N1379       N  0.66349824  0.43428182  0.90782154    -0.34600
N1380       N  0.67917111  0.43193198  0.89227314    -0.28800
C1381       C  0.67612078  0.44679276  0.88292583    -0.04900
C1382       C  0.65754272  0.45914673  0.89304918     0.07300
C1383       C  0.64982718  0.45066399  0.90871172     0.01100
H1384       H  0.68711940  0.44847080  0.86981771     0.08700
H1385       H  0.63668125  0.45625144  0.92023606     0.07800
N1386       N  0.72858698  0.38435402  0.88009658    -0.36000
N1387       N  0.73300043  0.37238680  0.89242274    -0.28200
C1388       C  0.74849985  0.35798687  0.88527968    -0.03500
C1389       C  0.75405100  0.36101763  0.86753989     0.05200
C1390       C  0.74096149  0.37784700  0.86472730     0.03300
H1391       H  0.75446663  0.34609526  0.89243193     0.08400
H1392       H  0.74046660  0.38486919  0.85240050     0.07200
C1393       C  0.88967239  0.68135086  0.30827332     0.80300
N1394       N  0.87381729  0.68260717  0.29205532    -0.78000
C1395       C  0.88569485  0.69474698  0.28031548     0.82800
N1396       N  0.91392706  0.70546072  0.28484079    -0.77900
C1397       C  0.92999522  0.70447052  0.30088399     0.82900
N1398       N  0.91750294  0.69257978  0.31268420    -0.79700
C1399       C  0.77180454  0.69568630  0.19055100     0.80300
N1400       N  0.75824713  0.71215711  0.18812120    -0.78000
C1401       C  0.76739384  0.72539812  0.19930942     0.82800
N1402       N  0.78993424  0.72188972  0.21314527    -0.77900
C1403       C  0.80338866  0.70551999  0.21589219     0.82900
N1404       N  0.79412832  0.69248113  0.20456376    -0.79700
C1405       C  0.03107528  0.79315952  0.32247114     0.80300
N1406       N  0.01573820  0.77689174  0.32343176    -0.78000
C1407       C  0.02236419  0.76469676  0.31067207     0.82800
N1408       N  0.04449475  0.76900516  0.29693037    -0.77900
C1409       C  0.05954058  0.78516590  0.29566476     0.82900
N1410       N  0.05263488  0.79717871  0.30840575    -0.79700
C1411       C  0.13445639  0.81083214  0.20190139     0.80300
N1412       N  0.66482200  0.79903755  0.19406350    -0.78000
C1413       C  0.67971086  0.78715872  0.20533446     0.82800
N1414       N  0.66738462  0.78638756  0.22211808    -0.77900
C1415       C  0.13551711  0.79767345  0.23008049     0.82900
N1416       N  0.12175910  0.80980548  0.21876076    -0.79700
C1417       C  0.71105852  0.30572954  0.31721739     0.80300
N1418       N  0.73444685  0.30893880  0.30360955    -0.78000
C1419       C  0.74501064  0.29578188  0.29273325     0.82800
N1420       N  0.73176098  0.27947183  0.29526714    -0.77900
C1421       C  0.70807788  0.27594507  0.30856466     0.82900
N1422       N  0.69782586  0.28917728  0.31963124    -0.79700
C1423       C  0.83703421  0.30796497  0.19942575     0.80300
N1424       N  0.82076728  0.31011402  0.21544786    -0.78000
C1425       C  0.82873987  0.29913805  0.22886586     0.82800
N1426       N  0.85317228  0.28600482  0.22607598    -0.77900
C1427       C  0.86962322  0.28356613  0.21027548     0.82900
N1428       N  0.86145250  0.29456284  0.19683853    -0.79700
C1429       C  0.59495477  0.18645907  0.31412183     0.80300
N1430       N  0.62050015  0.19924063  0.31716172    -0.78000
C1431       C  0.62747087  0.21143469  0.30467009     0.82800
N1432       N  0.60834446  0.21104440  0.28939269    -0.77900
C1433       C  0.58225607  0.19874299  0.28632717     0.82900
N1434       N  0.57591224  0.18638613  0.29868463    -0.79700
C1435       C  0.97375387  0.19270785  0.19832329     0.80300
N1436       N  0.95533441  0.20828569  0.19676475    -0.78000
C1437       C  0.95949479  0.22102263  0.20920491     0.82800
N1438       N  0.98230648  0.21805210  0.22293193    -0.77900
C1439       C  0.00039551  0.20273632  0.22484772     0.82900
N1440       N  0.99601423  0.19000473  0.21256417    -0.79700
N1441       N  0.52277359  0.88364644  0.07532295    -0.27200
N1442       N  0.49734808  0.89572969  0.07249743    -0.35100
C1443       C  0.49366250  0.89809752  0.05510357     0.01100
C1444       C  0.51804942  0.88696819  0.04638616     0.07200
C1445       C  0.53597067  0.87792905  0.05976101    -0.05900
H1446       H  0.47564463  0.90782350  0.04931119     0.07800
H1447       H  0.55742340  0.86813284  0.05848187     0.09000
Cu1448     Cu  0.47200916  0.90977650  0.09247446     0.44200
Cu1449     Cu  0.53915631  0.87664232  0.10042955     0.42000
Cu1450     Cu  0.50716603  0.90457703  0.13688789     0.43900
N1451       N  0.46271524  0.92751934  0.11262483    -0.34600
N1452       N  0.47636070  0.92617553  0.12869344    -0.28800
C1453       C  0.46890160  0.94109015  0.13760057    -0.04900
C1454       C  0.44955860  0.95232993  0.12655790     0.07300
C1455       C  0.44607967  0.94313390  0.11090563     0.01100
H1456       H  0.47789708  0.94367158  0.15092417     0.08700
H1457       H  0.43444961  0.94789377  0.09870618     0.07800
N1458       N  0.53953776  0.88213276  0.13995464    -0.36000
N1459       N  0.55121869  0.87228909  0.12669635    -0.28200
C1460       C  0.57137517  0.85892073  0.13302200    -0.03500
C1461       C  0.57268104  0.86031168  0.15117626     0.05200
C1462       C  0.55192591  0.87515303  0.15510243     0.03300
H1463       H  0.58345946  0.84874820  0.12490747     0.08400
H1464       H  0.54632361  0.88053502  0.16802411     0.07200
N1465       N  0.93416634  0.10253282  0.07265345    -0.27200
N1466       N  0.92446067  0.08598723  0.07088006    -0.35100
C1467       C  0.92175018  0.08194586  0.05376512     0.01100
C1468       C  0.93037575  0.09666781  0.04408483     0.07200
C1469       C  0.93785230  0.10957144  0.05652994    -0.05900
H1470       H  0.91400257  0.06916082  0.04887423     0.07800
H1471       H  0.94587779  0.12297226  0.05405768     0.09000
Cu1472     Cu  0.91715524  0.06930056  0.09160354     0.44200
Cu1473     Cu  0.94197332  0.11363747  0.09735673     0.42000
Cu1474     Cu  0.94447447  0.08163735  0.13468437     0.43900
N1475       N  0.92269912  0.05164898  0.11163570    -0.34600
N1476       N  0.93411406  0.05562410  0.12765093    -0.28800
C1477       C  0.93739814  0.04064245  0.13691745    -0.04900
C1478       C  0.92687062  0.02674170  0.12612666     0.07300
C1479       C  0.91810636  0.03432308  0.11020828     0.01100
H1480       H  0.94683267  0.03990137  0.15040316     0.08700
H1481       H  0.91034680  0.02770931  0.09815089     0.07800
N1482       N  0.94937963  0.10884650  0.13694532    -0.36000
N1483       N  0.94818664  0.12014184  0.12377446    -0.28200
C1484       C  0.95181784  0.13647856  0.13025149    -0.03500
C1485       C  0.95583108  0.13551679  0.14833103     0.05200
C1486       C  0.95389207  0.11778078  0.15207770     0.03300
H1487       H  0.95199514  0.14819289  0.12230215     0.08400
H1488       H  0.95523195  0.11170766  0.16487859     0.07200
N1489       N  0.56901614  0.89328289  0.94475235    -0.27200
N1490       N  0.55217433  0.90850348  0.94684476    -0.35100
C1491       C  0.53953905  0.90987587  0.96335795     0.01100
C1492       C  0.54880559  0.89475871  0.97224958     0.07200
C1493       C  0.56789692  0.88453416  0.96011521    -0.05900
H1494       H  0.52476863  0.92113187  0.96847952     0.07800
H1495       H  0.57919236  0.87156783  0.96216274     0.09000
Cu1496     Cu  0.54651637  0.92669670  0.92725197     0.44200
Cu1497     Cu  0.59014766  0.88576790  0.92042458     0.42000
Cu1498     Cu  0.58022603  0.91833233  0.88399190     0.43900
N1499       N  0.53966462  0.94380070  0.90677226    -0.34600
N1500       N  0.55205208  0.94117951  0.89063836    -0.28800
C1501       C  0.54142435  0.95476911  0.88050595    -0.04900
C1502       C  0.52096149  0.96624488  0.89087728     0.07300
C1503       C  0.52089395  0.95890139  0.90744622     0.01100
H1504       H  0.54700012  0.95589208  0.86657549     0.08700
H1505       H  0.50772764  0.96400278  0.91918468     0.07800
N1506       N  0.59937136  0.89274874  0.88120456    -0.36000
N1507       N  0.60258118  0.88121294  0.89406484    -0.28200
C1508       C  0.61374221  0.86581452  0.88723604    -0.03500
C1509       C  0.61810593  0.86765445  0.86920264     0.05200
C1510       C  0.60858109  0.88494787  0.86592460     0.03300
H1511       H  0.61726283  0.85408074  0.89494253     0.08400
H1512       H  0.60782882  0.89142040  0.85330468     0.07200
N1513       N  0.92679048  0.10958812  0.93997342    -0.27200
N1514       N  0.92158170  0.09252427  0.94040377    -0.35100
C1515       C  0.91993961  0.08715865  0.95711531     0.01100
C1516       C  0.92440669  0.10153026  0.96805247     0.07200
C1517       C  0.92859693  0.11563345  0.95665508    -0.05900
H1518       H  0.91682332  0.07361374  0.96091943     0.07800
H1519       H  0.93406400  0.12912407  0.96010325     0.09000
Cu1520     Cu  0.92153504  0.07682127  0.91856387     0.44200
Cu1521     Cu  0.93368454  0.12239782  0.91604914     0.42000
Cu1522     Cu  0.95200664  0.09197074  0.87749583     0.43900
N1523       N  0.93849022  0.06034734  0.89889152    -0.34600
N1524       N  0.95128126  0.06540261  0.88350665    -0.28800
C1525       C  0.96338654  0.05111633  0.87461141    -0.04900
C1526       C  0.95748589  0.03644374  0.88508842     0.07300
C1527       C  0.94180671  0.04301668  0.90033563     0.01100
H1528       H  0.97604586  0.05148971  0.86173495     0.08700
H1529       H  0.93497934  0.03586447  0.91214340     0.07800
N1530       N  0.95004418  0.11926285  0.87672821    -0.36000
N1531       N  0.94362744  0.13001181  0.89013497    -0.28200
C1532       C  0.94531139  0.14663505  0.88434472    -0.03500
C1533       C  0.95346954  0.14641785  0.86651373     0.05200
C1534       C  0.95585779  0.12879335  0.86219213     0.03300
H1535       H  0.94151901  0.15805205  0.89263492     0.08400
H1536       H  0.96132346  0.12311306  0.84940991     0.07200
C1537       C  0.00067101  0.98442875  0.88787400    -0.05400
C1538       C  0.51768935  0.99455952  0.87434904    -0.32800
C1539       C  0.00147847  0.01295575  0.87350641     0.36400
C1540       C  0.96944311  0.01794037  0.88292363    -0.05700
C1541       C  0.95100965  0.00524774  0.89290880    -0.32700
C1542       C  0.96630354  0.98873521  0.89548611     0.36400
H1543       H  0.54373365  0.99145045  0.86799702     0.16700
O1544       O  0.52056769  0.02342034  0.86222116    -0.60200
H1545       H  0.92530103  0.00838077  0.89954687     0.16700
O1546       O  0.94790630  0.97714045  0.90605383    -0.60300
H1547       H  0.93270251  0.96996628  0.89792598     0.43700
H1548       H  0.51153833  0.02146756  0.85003235     0.43700
C1549       C  0.93097052  0.09817507  0.02466004    -0.05400
C1550       C  0.92150132  0.11412397  0.01669137    -0.32800
C1551       C  0.91974606  0.11561271  0.99831495     0.36400
C1552       C  0.92766582  0.10098865  0.98754658    -0.05700
C1553       C  0.93842148  0.08523149  0.99559750    -0.32700
C1554       C  0.93991862  0.08369823  0.01388930     0.36400
H1555       H  0.91432879  0.12538155  0.02472704     0.16700
O1556       O  0.90834719  0.13114624  0.99113252    -0.60200
H1557       H  0.94599786  0.07392396  0.98773958     0.16700
O1558       O  0.95170058  0.06818023  0.02104135    -0.60300
H1559       H  0.93135285  0.05973690  0.01888007     0.43700
H1560       H  0.93008868  0.13900354  0.99195455     0.43700
C1561       C  0.52527130  0.88668331  0.02708764    -0.05400
C1562       C  0.49796717  0.89325940  0.01570557    -0.32800
C1563       C  0.50497858  0.89545744  0.99777435     0.36400
C1564       C  0.53960417  0.89072818  0.99072733    -0.05700
C1565       C  0.56619230  0.88311001  0.00174356    -0.32700
C1566       C  0.55939256  0.88112012  0.01980662     0.36400
H1567       H  0.47106060  0.89704538  0.02071016     0.16700
O1568       O  0.47744206  0.90187103  0.98713901    -0.60200
H1569       H  0.59299050  0.87942183  0.99649670     0.16700
O1570       O  0.58724914  0.87482128  0.03026245    -0.60300
H1571       H  0.58698268  0.86194086  0.02848262     0.43700
H1572       H  0.96403183  0.91191683  0.99131122     0.43700
C1573       C  0.93959822  0.97100848  0.13068862    -0.05400
C1574       C  0.90902214  0.97812154  0.12183266    -0.32800
C1575       C  0.90328673  0.99620668  0.12125099     0.36400
C1576       C  0.92849202  0.00766165  0.12951651    -0.05700
C1577       C  0.95758799  0.00056767  0.13944263    -0.32700
C1578       C  0.46189922  0.98260580  0.13926072     0.36400
H1579       H  0.89003082  0.96964029  0.11481672     0.16700
O1580       O  0.87354689  0.00255730  0.11203301    -0.60200
H1581       H  0.97733710  0.00914711  0.14582420     0.16700
O1582       O  0.49123823  0.97643702  0.14885175    -0.60300
H1583       H  0.48224795  0.97603128  0.16116705     0.43700
H1584       H  0.85314745  0.00333255  0.12072640     0.43700
C1585       C  0.96119847  0.15027763  0.16085399    -0.05400
C1586       C  0.94552902  0.16675824  0.15729803    -0.32800
C1587       C  0.94958306  0.18079616  0.16912117     0.36400
C1588       C  0.96952350  0.17849871  0.18495882    -0.05700
C1589       C  0.98605432  0.16211146  0.18814816    -0.32700
C1590       C  0.98203603  0.14814884  0.17635103     0.36400
H1591       H  0.92958251  0.16874220  0.14540163     0.16700
O1592       O  0.93361452  0.19657635  0.16504297    -0.60200
H1593       H  0.00224361  0.15993386  0.19993258     0.16700
O1594       O  0.00015466  0.13271769  0.17973848    -0.60300
H1595       H  0.98650173  0.12731242  0.18959923     0.43700
H1596       H  0.95293082  0.20310328  0.15851357     0.43700
C1597       C  0.56007271  0.19938826  0.26998091    -0.05400
C1598       C  0.54126504  0.18441383  0.26385173    -0.32800
C1599       C  0.52012876  0.18502764  0.24836727     0.36400
C1600       C  0.51778826  0.20074449  0.23883385    -0.05700
C1601       C  0.53618588  0.21564021  0.24508596    -0.32700
C1602       C  0.55702247  0.21512344  0.26042690     0.36400
H1603       H  0.54284208  0.17223969  0.27107671     0.16700
O1604       O  0.00790162  0.17043584  0.24459578    -0.60200
H1605       H  0.53423450  0.22793755  0.23807438     0.16700
O1606       O  0.57272560  0.23038810  0.26636502    -0.60300
H1607       H  0.59567446  0.23176597  0.25937511     0.43700
H1608       H  0.98293378  0.17186553  0.24982107     0.43700
C1609       C  0.89603031  0.26891375  0.20844525    -0.05400
C1610       C  0.91546803  0.26387251  0.22351663    -0.32800
C1611       C  0.93641110  0.24862560  0.22379489     0.36400
C1612       C  0.93870390  0.23783190  0.20862099    -0.05700
C1613       C  0.92044296  0.24324367  0.19319397    -0.32700
C1614       C  0.89936158  0.25875905  0.19300267     0.36400
H1615       H  0.91353578  0.27155782  0.23551570     0.16700
O1616       O  0.95255645  0.24397600  0.23944599    -0.60200
H1617       H  0.92195398  0.23531370  0.18136200     0.16700
O1618       O  0.88029525  0.26319910  0.17807591    -0.60300
H1619       H  0.89781763  0.27028781  0.17107932     0.43700
H1620       H  0.97594789  0.25068923  0.24000854     0.43700
C1621       C  0.65360166  0.22588512  0.30764462    -0.05400
C1622       C  0.65019738  0.23660360  0.32260227    -0.32800
C1623       C  0.66887017  0.25268670  0.32360697     0.36400
C1624       C  0.69157230  0.25813234  0.30953514    -0.05700
C1625       C  0.69706291  0.24655107  0.29527629    -0.32700
C1626       C  0.67802225  0.23073492  0.29416926     0.36400
H1627       H  0.63129288  0.23302064  0.33303413     0.16700
O1628       O  0.66338275  0.26321360  0.33803193    -0.60200
H1629       H  0.71485373  0.25003444  0.28438460     0.16700
O1630       O  0.68299846  0.22016924  0.27968546    -0.60300
H1631       H  0.66861980  0.22576544  0.27011934     0.43700
H1632       H  0.68389970  0.26031895  0.34617475     0.43700
C1633       C  0.76992214  0.29885779  0.27788556    -0.05400
C1634       C  0.76216482  0.31206373  0.26566559    -0.32800
C1635       C  0.78188439  0.31291964  0.24980200     0.36400
C1636       C  0.80995680  0.30046835  0.24616980    -0.05700
C1637       C  0.81902125  0.28807976  0.25913750    -0.32700
C1638       C  0.79918127  0.28716058  0.27475229     0.36400
H1639       H  0.73948985  0.32110066  0.26798003     0.16700
O1640       O  0.77206596  0.32533536  0.23767650    -0.60200
H1641       H  0.84077929  0.27852172  0.25701059     0.16700
O1642       O  0.80770236  0.27428124  0.28662546    -0.60300
H1643       H  0.82472552  0.27987332  0.29517926     0.43700
H1644       H  0.78672979  0.33584207  0.24082155     0.43700
C1645       C  0.62161797  0.82357852  0.18762732    -0.05400
C1646       C  0.63801205  0.82654894  0.17113006    -0.32800
C1647       C  0.62277227  0.83858344  0.15924589     0.36400
C1648       C  0.59046608  0.84800856  0.16370157    -0.05700
C1649       C  0.57447376  0.84535974  0.18027737    -0.32700
C1650       C  0.08797025  0.83458200  0.19376923     0.36400
H1651       H  0.66294832  0.81958349  0.16736457     0.16700
O1652       O  0.64068921  0.84160359  0.14364917    -0.60200
H1653       H  0.04958319  0.85414291  0.18504110     0.16700
O1654       O  0.06975797  0.83266667  0.20946584    -0.60300
H1655       H  0.07998232  0.84188224  0.21726859     0.43700
H1656       H  0.63627873  0.83099343  0.13634752     0.43700
C1657       C  0.11937488  0.79537020  0.24794778    -0.05400
C1658       C  0.09545943  0.80817788  0.25498600    -0.32800
C1659       C  0.07721816  0.80547699  0.27103967     0.36400
C1660       C  0.08202210  0.78959682  0.28011650    -0.05700
C1661       C  0.10685820  0.77711825  0.27351302    -0.32700
C1662       C  0.12574031  0.77990896  0.25775222     0.36400
H1663       H  0.09023880  0.82020033  0.24788529     0.16700
O1664       O  0.05281372  0.81789875  0.27708748    -0.60200
H1665       H  0.11123488  0.76493940  0.28049291     0.16700
O1666       O  0.65398026  0.76660855  0.24971377    -0.60300
H1667       H  0.63725812  0.75828249  0.24364613     0.43700
H1668       H  0.06842997  0.82710667  0.28251505     0.43700
C1669       C  0.74972693  0.74297114  0.19767944    -0.05400
C1670       C  0.71793335  0.74502894  0.18714493    -0.32800
C1671       C  0.69643351  0.76032742  0.18816743     0.36400
C1672       C  0.70687321  0.77393701  0.19962220    -0.05700
C1673       C  0.74020185  0.77259828  0.20891236    -0.32700
C1674       C  0.76172490  0.75736321  0.20796312     0.36400
H1675       H  0.70817043  0.73432899  0.17898901     0.16700
O1676       O  0.66372704  0.76124760  0.17905206    -0.60200
H1677       H  0.74847397  0.78302465  0.21779289     0.16700
O1678       O  0.79386415  0.75656030  0.21754867    -0.60300
H1679       H  0.78601858  0.75453638  0.22986915     0.43700
H1680       H  0.64532326  0.75522304  0.18655357     0.43700
C1681       C  0.00308583  0.74744510  0.31044260    -0.05400
C1682       C  0.00868943  0.73617649  0.29595568    -0.32800
C1683       C  0.98644477  0.72148524  0.29332500     0.36400
C1684       C  0.95865407  0.71738212  0.30552854    -0.05700
C1685       C  0.95512392  0.72754044  0.32086312    -0.32700
C1686       C  0.97695764  0.74253703  0.32337153     0.36400
H1687       H  0.02912088  0.73917141  0.28600311     0.16700
O1688       O  0.99157042  0.71135573  0.27855178    -0.60200
H1689       H  0.93372698  0.72452990  0.33035322     0.16700
O1690       O  0.97081292  0.75276404  0.33795625    -0.60300
H1691       H  0.98819711  0.74828853  0.34698084     0.43700
H1692       H  0.97992268  0.71800295  0.26880798     0.43700
C1693       C  0.86666230  0.69714383  0.26319034    -0.05400
C1694       C  0.84670166  0.68325923  0.25564464    -0.32800
C1695       C  0.82708539  0.68551632  0.23989033     0.36400
C1696       C  0.82657121  0.70200624  0.23157213    -0.05700
C1697       C  0.84703889  0.71576954  0.23896649    -0.32700
C1698       C  0.86710913  0.71346482  0.25448943     0.36400
H1699       H  0.84600611  0.67061465  0.26204106     0.16700
O1700       O  0.80681782  0.67180088  0.23334736    -0.60200
H1701       H  0.84717333  0.72853815  0.23280455     0.16700
O1702       O  0.88519780  0.72762645  0.26153968    -0.60300
H1703       H  0.90905756  0.72822440  0.25514530     0.43700
H1704       H  0.82513774  0.66392563  0.22766321     0.43700
C1705       C  0.64487783  0.51490757  0.88785816    -0.05400
C1706       C  0.67457682  0.50632573  0.87958346    -0.32800
C1707       C  0.67798782  0.48804533  0.88020682     0.36400
C1708       C  0.65157782  0.47802738  0.88938335    -0.05700
C1709       C  0.62052911  0.48653440  0.89655283    -0.32700
C1710       C  0.61680835  0.50475481  0.89565373     0.36400
H1711       H  0.69645241  0.51382515  0.87349154     0.16700
O1712       O  0.70898712  0.48034831  0.87319162    -0.60200
H1713       H  0.59941303  0.47905193  0.90325417     0.16700
O1714       O  0.58607250  0.51250595  0.90289848    -0.60300
H1715       H  0.56964799  0.51517346  0.89279489     0.43700
H1716       H  0.70419653  0.47963432  0.86035532     0.43700
C1717       C  0.68367619  0.37735159  0.98995893    -0.05400
C1718       C  0.71663743  0.37065041  0.99711487    -0.32800
C1719       C  0.72114315  0.36925546  0.01535035     0.36400
C1720       C  0.69219035  0.37437233  0.02666516    -0.05700
C1721       C  0.65834159  0.37978400  0.01945626    -0.32700
C1722       C  0.65392415  0.38130095  0.00124671     0.36400
H1723       H  0.73984046  0.36751764  0.98863854     0.16700
O1724       O  0.75476613  0.36409288  0.02193945    -0.60200
H1725       H  0.63565710  0.38351003  0.02802498     0.16700
O1726       O  0.62040137  0.38653385  0.99458570    -0.60300
H1727       H  0.61808110  0.39912708  0.99769682     0.43700
H1728       H  0.76938133  0.37500537  0.02310425     0.43700
C1729       C  0.80873457  0.34456815  0.15872182    -0.05400
C1730       C  0.82369747  0.32814685  0.15424618    -0.32800
C1731       C  0.83324940  0.31606306  0.16726212     0.36400
C1732       C  0.82810679  0.32036129  0.18516056    -0.05700
C1733       C  0.81316217  0.33678536  0.18959114    -0.32700
C1734       C  0.80352724  0.34882329  0.17662525     0.36400
H1735       H  0.82793403  0.32459581  0.14058123     0.16700
O1736       O  0.84688972  0.30002156  0.16225846    -0.60200
H1737       H  0.80865306  0.34039018  0.20322942     0.16700
O1738       O  0.78699796  0.36424321  0.18164645    -0.60300
H1739       H  0.80715353  0.37147059  0.18676054     0.43700
H1740       H  0.82498084  0.29227110  0.16151465     0.43700
C1741       C  0.65077819  0.60919431  0.02511096    -0.05400
C1742       C  0.67890106  0.61827646  0.01628452    -0.32800
C1743       C  0.67916532  0.61923748  0.99784964     0.36400
C1744       C  0.65069372  0.61119485  0.98801624    -0.05700
C1745       C  0.62137220  0.60318534  0.99704252    -0.32700
C1746       C  0.62126304  0.60215806  0.01537245     0.36400
H1747       H  0.70172136  0.62387578  0.02362557     0.16700
O1748       O  0.70827081  0.62729032  0.98966397    -0.60200
H1749       H  0.59867657  0.59732051  0.98983613     0.16700
O1750       O  0.59235100  0.59400241  0.02362537    -0.60300
H1751       H  0.57615139  0.60361948  0.02791307     0.43700
H1752       H  0.72739539  0.61804601  0.98823910     0.43700
C1753       C  0.71718664  0.47650953  0.12166304    -0.05400
C1754       C  0.68162620  0.48283094  0.11787411    -0.32800
C1755       C  0.67360798  0.50064887  0.11876219     0.36400
C1756       C  0.70149802  0.51268939  0.12322511    -0.05700
C1757       C  0.73639468  0.50635681  0.12841831    -0.32700
C1758       C  0.74430815  0.48831517  0.12777997     0.36400
H1759       H  0.65993348  0.47392253  0.11381465     0.16700
O1760       O  0.63848693  0.50618817  0.11476444    -0.60200
H1761       H  0.75811100  0.51543097  0.13204924     0.16700
O1762       O  0.77927503  0.48259591  0.13181599    -0.60300
H1763       H  0.77957700  0.48150515  0.14481666     0.43700
H1764       H  0.62602538  0.50779439  0.12628004     0.43700
C1765       C  0.73845628  0.65407947  0.15540258    -0.05400
C1766       C  0.76828564  0.65158627  0.16691009    -0.32800
C1767       C  0.77970332  0.66495074  0.17831966     0.36400
C1768       C  0.76105689  0.68125501  0.17841775    -0.05700
C1769       C  0.73120871  0.68370065  0.16681449    -0.32700
C1770       C  0.72000386  0.67035881  0.15533545     0.36400
H1771       H  0.78320742  0.63926075  0.16694545     0.16700
O1772       O  0.80982598  0.66203682  0.18889902    -0.60200
H1773       H  0.71602593  0.69595183  0.16672117     0.16700
O1774       O  0.68976014  0.67309481  0.14478120    -0.60300
H1775       H  0.69840178  0.68105492  0.13536930     0.43700
H1776       H  0.80089319  0.65416324  0.19830422     0.43700
C1777       C  0.95875539  0.16169114  0.85469521    -0.05400
C1778       C  0.94124908  0.17771544  0.85853729    -0.32800
C1779       C  0.94428475  0.19206652  0.84715500     0.36400
C1780       C  0.96527090  0.19062260  0.83151016    -0.05700
C1781       C  0.98405684  0.17479528  0.82816012    -0.32700
C1782       C  0.98101281  0.16050072  0.83950241     0.36400
H1783       H  0.92439355  0.17908041  0.87024184     0.16700
O1784       O  0.92677253  0.20740589  0.85160664    -0.60200
H1785       H  0.48553799  0.17007624  0.81205319     0.16700
O1786       O  0.00135291  0.14570808  0.83595998    -0.60300
H1787       H  0.98946659  0.14026531  0.82550987     0.43700
H1788       H  0.90058260  0.20571882  0.84809228     0.43700
C1789       C  0.50966338  0.21269407  0.77459910    -0.05400
C1790       C  0.52857067  0.22750960  0.76863227    -0.32800
C1791       C  0.54963820  0.22695340  0.75330216     0.36400
C1792       C  0.55183654  0.21134646  0.74328969    -0.05700
C1793       C  0.04017828  0.19541509  0.75141567    -0.32700
C1794       C  0.01941938  0.19656999  0.76703097     0.36400
H1795       H  0.52706406  0.23972263  0.77592659     0.16700
O1796       O  0.56667609  0.24204193  0.74792574    -0.60200
H1797       H  0.04496919  0.18266066  0.74552817     0.16700
O1798       O  0.00478867  0.18161010  0.77407470    -0.60300
H1799       H  0.02505137  0.17641524  0.78118118     0.43700
H1800       H  0.58990472  0.24268068  0.75484682     0.43700
C1801       C  0.68575834  0.26896689  0.70376114    -0.05400
C1802       C  0.66807835  0.26219881  0.68870411    -0.32800
C1803       C  0.64858210  0.24629946  0.68943113     0.36400
C1804       C  0.64568429  0.23729825  0.70550145    -0.05700
C1805       C  0.66500117  0.24355167  0.72018832    -0.32700
C1806       C  0.68480809  0.25912469  0.71948677     0.36400
H1807       H  0.66879181  0.26938484  0.67645511     0.16700
O1808       O  0.63033845  0.24039019  0.67475597    -0.60200
H1809       H  0.66343878  0.23667805  0.73261562     0.16700
O1810       O  0.70156153  0.26494735  0.73461903    -0.60300
H1811       H  0.68253748  0.27207245  0.74075930     0.43700
H1812       H  0.64900952  0.23350635  0.66808915     0.43700
C1813       C  0.79862303  0.32690650  0.82739675    -0.05400
C1814       C  0.81269980  0.32632660  0.84466063    -0.32800
C1815       C  0.79824074  0.33715672  0.85793669     0.36400
C1816       C  0.76907955  0.34882199  0.85413535    -0.05700
C1817       C  0.75448450  0.34917666  0.83706804    -0.32700
C1818       C  0.76863402  0.33832198  0.82382704     0.36400
H1819       H  0.83559355  0.31773445  0.84787230     0.16700
O1820       O  0.81370449  0.33662507  0.87440412    -0.60200
H1821       H  0.73171046  0.35788162  0.83394547     0.16700
O1822       O  0.75302438  0.33925172  0.80740992    -0.60300
H1823       H  0.73294185  0.33041651  0.80742686     0.43700
H1824       H  0.83406210  0.34530538  0.87414762     0.43700
C1825       C  0.88623747  0.28058794  0.80813874    -0.05400
C1826       C  0.87955299  0.26796900  0.82112716    -0.32800
C1827       C  0.90186469  0.25289017  0.82229208     0.36400
C1828       C  0.93165713  0.25044696  0.81046740    -0.05700
C1829       C  0.94013454  0.26404160  0.79870067    -0.32700
C1830       C  0.91757715  0.27883163  0.79734984     0.36400
H1831       H  0.85563659  0.26923312  0.82963422     0.16700
O1832       O  0.89324357  0.24039908  0.83450247    -0.60200
H1833       H  0.96355170  0.26294977  0.78986727     0.16700
O1834       O  0.92621089  0.29150188  0.78528847    -0.60300
H1835       H  0.91824884  0.28671034  0.77374442     0.43700
H1836       H  0.87401385  0.23303290  0.82885061     0.43700
C1837       C  0.80725248  0.30999443  0.76475314    -0.05400
C1838       C  0.78267456  0.32363411  0.76024148    -0.32800
C1839       C  0.76421560  0.32365156  0.74399195     0.36400
C1840       C  0.76976181  0.30975641  0.73206503    -0.05700
C1841       C  0.79632049  0.29693407  0.73592727    -0.32700
C1842       C  0.81514601  0.29698087  0.75198294     0.36400
H1843       H  0.77644160  0.33395135  0.76961731     0.16700
O1844       O  0.73828759  0.33635836  0.74067454    -0.60200
H1845       H  0.80114121  0.28623750  0.72677583     0.16700
O1846       O  0.83983587  0.28371384  0.75526097    -0.60300
H1847       H  0.82461431  0.27374774  0.75937234     0.43700
H1848       H  0.75199553  0.34580336  0.73460691     0.43700
C1849       C  0.56711264  0.15508048  0.66285426    -0.05400
C1850       C  0.59407452  0.16767545  0.65898197    -0.32800
C1851       C  0.60120615  0.18155000  0.67058429     0.36400
C1852       C  0.58094553  0.18311976  0.68642154    -0.05700
C1853       C  0.55375623  0.17051279  0.69014043    -0.32700
C1854       C  0.54664604  0.15671145  0.67854109     0.36400
H1855       H  0.61008396  0.16668234  0.64697179     0.16700
O1856       O  0.62778030  0.19351515  0.66612860    -0.60200
H1857       H  0.53745128  0.17134139  0.70206957     0.16700
O1858       O  0.51892221  0.14517799  0.68254989    -0.60300
H1859       H  0.49623211  0.15025966  0.67728862     0.43700
H1860       H  0.65135330  0.18855530  0.67058632     0.43700
C1861       C  0.93275071  0.98764502  0.63566106    -0.05400
C1862       C  0.46952356  0.99513622  0.64556121    -0.32800
C1863       C  0.47726393  0.01309094  0.64477271     0.36400
C1864       C  0.45548305  0.02403543  0.63404400    -0.05700
C1865       C  0.42393358  0.01719179  0.62584283    -0.32700
C1866       C  0.90938563  0.99927826  0.62655779     0.36400
H1867       H  0.48829816  0.98664471  0.65266497     0.16700
O1868       O  0.50839499  0.01937196  0.65292744    -0.60200
H1869       H  0.90164284  0.02547453  0.61736425     0.16700
O1870       O  0.87837899  0.99338256  0.61800621    -0.60300
H1871       H  0.85918777  0.99240927  0.62726886     0.43700
H1872       H  0.50120821  0.02107415  0.66541200     0.43700
C1873       C  0.55992387  0.10042039  0.49043639    -0.05400
C1874       C  0.54990609  0.11625412  0.49862519    -0.32800
C1875       C  0.54704025  0.11730861  0.51698876     0.36400
C1876       C  0.55408268  0.10237888  0.52724456    -0.05700
C1877       C  0.56647093  0.08695436  0.51912776    -0.32700
C1878       C  0.56960257  0.08590897  0.50085972     0.36400
H1879       H  0.54231521  0.12750546  0.49076476     0.16700
O1880       O  0.53422261  0.13245040  0.52463888    -0.60200
H1881       H  0.57287796  0.07551752  0.52696649     0.16700
O1882       O  0.58251488  0.07072190  0.49328227    -0.60300
H1883       H  0.56285100  0.06189687  0.49517875     0.43700
H1884       H  0.55638298  0.13990088  0.52618609     0.43700
C1885       C  0.57843767  0.14608746  0.35274685    -0.05400
C1886       C  0.55712969  0.14619755  0.33735564    -0.32800
C1887       C  0.56150783  0.15936300  0.32483631     0.36400
C1888       C  0.58817291  0.17267718  0.32745362    -0.05700
C1889       C  0.60931068  0.17252705  0.34298755    -0.32700
C1890       C  0.60472403  0.15938316  0.35550800     0.36400
H1891       H  0.53658975  0.13612914  0.33508349     0.16700
O1892       O  0.53982435  0.15882811  0.31003251    -0.60200
H1893       H  0.63001923  0.18247402  0.34540863     0.16700
O1894       O  0.62689010  0.15941783  0.37015332    -0.60300
H1895       H  0.64903514  0.15245745  0.36679005     0.43700
H1896       H  0.51710781  0.16547792  0.31315773     0.43700
C1897       C  0.94170255  0.88725809  0.49677079    -0.05400
C1898       C  0.96706915  0.87824191  0.50740276    -0.32800
C1899       C  0.96553309  0.87973504  0.52582664     0.36400
C1900       C  0.93812584  0.89031087  0.53384894    -0.05700
C1901       C  0.91206693  0.89878372  0.52314264    -0.32700
C1902       C  0.91359211  0.89727971  0.50483620     0.36400
H1903       H  0.98914043  0.87066130  0.50141237     0.16700
O1904       O  0.99257640  0.87189333  0.53572153    -0.60200
H1905       H  0.89039079  0.90672759  0.52897703     0.16700
O1906       O  0.88752413  0.90582093  0.49492561    -0.60300
H1907       H  0.86774035  0.89709085  0.49285896     0.43700
H1908       H  0.98591519  0.85930271  0.53601244     0.43700
C1909       C  0.49779587  0.01027564  0.38739605    -0.05400
C1910       C  0.96092458  0.00385180  0.39732775    -0.32800
C1911       C  0.95066480  0.98627975  0.39752630     0.36400
C1912       C  0.97288585  0.97359586  0.38902451    -0.05700
C1913       C  0.51328792  0.98031258  0.37925926    -0.32700
C1914       C  0.52097704  0.99831329  0.37853080     0.36400
H1915       H  0.94467183  0.01322127  0.40481563     0.16700
O1916       O  0.91961079  0.98161210  0.40672199    -0.60200
H1917       H  0.53282815  0.97115534  0.37351832     0.16700
O1918       O  0.55302400  0.00385223  0.37071327    -0.60300
H1919       H  0.54660099  0.00546624  0.35814276     0.43700
H1920       H  0.89945230  0.98140382  0.39791025     0.43700
C1921       C  0.00891594  0.83188027  0.36299396    -0.05400
C1922       C  0.03080723  0.83601817  0.34835840    -0.32800
C1923       C  0.03797956  0.82374035  0.33514018     0.36400
C1924       C  0.02387333  0.80654066  0.33642338    -0.05700
C1925       C  0.00247923  0.80225231  0.35127162    -0.32700
C1926       C  0.99501322  0.81470785  0.36447505     0.36400
H1927       H  0.04250135  0.84897228  0.34697501     0.16700
O1928       O  0.05887978  0.82888281  0.32103206    -0.60200
H1929       H  0.99108369  0.78922892  0.35265103     0.16700
O1930       O  0.97258967  0.81014720  0.37824402    -0.60300
H1931       H  0.98842198  0.80300793  0.38613698     0.43700
H1932       H  0.04134367  0.83488831  0.31305059     0.43700
C1933       C  0.67558167  0.35778887  0.65826268    -0.05400
C1934       C  0.66249490  0.34067167  0.65536407    -0.32800
C1935       C  0.67184727  0.32690069  0.66670706     0.36400
C1936       C  0.69464752  0.33002750  0.68150341    -0.05700
C1937       C  0.70703400  0.34721656  0.68456441    -0.32700
C1938       C  0.69774928  0.36094742  0.67323877     0.36400
H1939       H  0.64495179  0.33781226  0.64417732     0.16700
O1940       O  0.65853464  0.31047899  0.66306292    -0.60200
H1941       H  0.72451977  0.35015232  0.69576412     0.16700
O1942       O  0.71225028  0.37718586  0.67658564    -0.60300
H1943       H  0.69709382  0.38207394  0.68628654     0.43700
H1944       H  0.67643162  0.30529045  0.65459899     0.43700
C1945       C  0.67062078  0.49764903  0.61950362    -0.05400
C1946       C  0.70242905  0.50150379  0.62940156    -0.32800
C1947       C  0.71700405  0.51850398  0.62978772     0.36400
C1948       C  0.69940547  0.53203215  0.62033908    -0.05700
C1949       C  0.66611043  0.52836114  0.61153398    -0.32700
C1950       C  0.65162636  0.51142490  0.61114206     0.36400
H1951       H  0.71736283  0.49112954  0.63601829     0.16700
O1952       O  0.74949384  0.52143301  0.63861675    -0.60200
H1953       H  0.65146382  0.53862114  0.60459790     0.16700
O1954       O  0.61921903  0.50845560  0.60223871    -0.60300
H1955       H  0.59941627  0.51000251  0.61113481     0.43700
H1956       H  0.76932146  0.51888601  0.62995182     0.43700
C1957       C  0.61260882  0.39883133  0.48511534    -0.05400
C1958       C  0.58466772  0.40821600  0.49385248    -0.32800
C1959       C  0.58263587  0.40828325  0.51217990     0.36400
C1960       C  0.60899609  0.39900828  0.52209315    -0.05700
C1961       C  0.63551500  0.38868836  0.51340688    -0.32700
C1962       C  0.63754716  0.38858395  0.49498926     0.36400
H1963       H  0.56488704  0.41591922  0.48644999     0.16700
O1964       O  0.55563483  0.41802728  0.52032469    -0.60200
H1965       H  0.65625689  0.38166775  0.52090085     0.16700
O1966       O  0.66615127  0.37986449  0.48692663    -0.60300
H1967       H  0.65844187  0.36739754  0.48657062     0.43700
H1968       H  0.53489917  0.40978298  0.52223752     0.43700
C1969       C  0.70020280  0.32020324  0.32924483    -0.05400
C1970       C  0.68886891  0.31646958  0.34645220    -0.32800
C1971       C  0.67947146  0.32990942  0.35826246     0.36400
C1972       C  0.68083361  0.34765638  0.35291897    -0.05700
C1973       C  0.69208910  0.35125863  0.33558793    -0.32700
C1974       C  0.70152370  0.33783963  0.32384983     0.36400
H1975       H  0.68770674  0.30302922  0.35092538     0.16700
O1976       O  0.66826588  0.32531821  0.37481165    -0.60200
H1977       H  0.69382684  0.36456485  0.33089567     0.16700
O1978       O  0.71172193  0.34222953  0.30705751    -0.60300
H1979       H  0.68868967  0.34148573  0.30001214     0.43700
H1980       H  0.69141162  0.32280095  0.38137304     0.43700
C1981       C  0.81068864  0.60401156  0.48673074    -0.05400
C1982       C  0.81540665  0.62085358  0.49397398    -0.32800
C1983       C  0.81239724  0.62362784  0.51218959     0.36400
C1984       C  0.80415563  0.60949365  0.52329256    -0.05700
C1985       C  0.80239237  0.59254693  0.51621251    -0.32700
C1986       C  0.80636311  0.58968230  0.49821027     0.36400
H1987       H  0.81953900  0.63202913  0.48549432     0.16700
O1988       O  0.81568745  0.64026373  0.51886731    -0.60200
H1989       H  0.79752680  0.58141412  0.52468846     0.16700
O1990       O  0.80543635  0.57278639  0.49204177    -0.60300
H1991       H  0.83171983  0.56915509  0.49107883     0.43700
H1992       H  0.79072682  0.64555613  0.51770881     0.43700
C1993       C  0.69864692  0.52329842  0.38347516    -0.05400
C1994       C  0.71562341  0.50992437  0.37366588    -0.32800
C1995       C  0.69979740  0.49318349  0.37278944     0.36400
C1996       C  0.66633660  0.48976814  0.38172131    -0.05700
C1997       C  0.64804737  0.50363787  0.39027988    -0.32700
C1998       C  0.66398703  0.52024233  0.39125912     0.36400
H1999       H  0.74244020  0.51210027  0.36770682     0.16700
O2000       O  0.71916009  0.47994969  0.36471119    -0.60200
H2001       H  0.62201989  0.50140564  0.39696075     0.16700
O2002       O  0.64623678  0.53321458  0.40055130    -0.60300
H2003       H  0.63003250  0.53911451  0.39187239     0.43700
H2004       H  0.71332280  0.48107230  0.35201523     0.43700
C2005       C  0.85069455  0.64448779  0.34735413    -0.05400
C2006       C  0.83759994  0.64355569  0.32994011    -0.32800
C2007       C  0.84992354  0.65527640  0.31704892     0.36400
C2008       C  0.87603532  0.66837229  0.32137743    -0.05700
C2009       C  0.88940037  0.66912118  0.33873030    -0.32700
C2010       C  0.87733979  0.65735122  0.35153562     0.36400
H2011       H  0.81731072  0.63381907  0.32622623     0.16700
O2012       O  0.83671097  0.65348360  0.30021833    -0.60200
H2013       H  0.90959237  0.67888564  0.34252966     0.16700
O2014       O  0.89251591  0.65849183  0.36801746    -0.60300
H2015       H  0.91417480  0.65048862  0.36778030     0.43700
H2016       H  0.81273098  0.65982866  0.30013373     0.43700
C2017       C  0.99476916  0.82047040  0.69358574    -0.05400
C2018       C  0.00817628  0.83734069  0.69744261    -0.32800
C2019       C  0.00127607  0.85136045  0.68617960     0.36400
C2020       C  0.98030008  0.84873892  0.67080737    -0.05700
C2021       C  0.96642936  0.83203624  0.66702631    -0.32700
C2022       C  0.97327979  0.81799489  0.67823330     0.36400
H2023       H  0.02473672  0.83971970  0.70908270     0.16700
O2024       O  0.01625280  0.86739667  0.69007093    -0.60200
H2025       H  0.94998514  0.82979998  0.65531367     0.16700
O2026       O  0.95951909  0.80188727  0.67369931    -0.60300
H2027       H  0.93313342  0.80219862  0.67728921     0.43700
H2028       H  0.04077288  0.86741914  0.68423982     0.43700
C2029       C  0.62811512  0.85396915  0.85601296    -0.05400
C2030       C  0.61716772  0.85603622  0.83839699    -0.32800
C2031       C  0.62578348  0.84341121  0.82562362     0.36400
C2032       C  0.64545470  0.82809914  0.83032001    -0.05700
C2033       C  0.65682432  0.82616261  0.84788728    -0.32700
C2034       C  0.64837373  0.83884863  0.86064051     0.36400
H2035       H  0.60145849  0.86743497  0.83441025     0.16700
O2036       O  0.61462962  0.84626994  0.80862313    -0.60200
H2037       H  0.67232633  0.81469761  0.85190174     0.16700
O2038       O  0.66154450  0.83661662  0.87740022    -0.60300
H2039       H  0.64620844  0.82717882  0.88254395     0.43700
H2040       H  0.12655862  0.85459637  0.80472541     0.43700
C2041       C  0.62464301  0.80004946  0.77246825    -0.05400
C2042       C  0.60685917  0.81498494  0.76572805    -0.32800
C2043       C  0.58479769  0.81387038  0.75060434     0.36400
C2044       C  0.57969794  0.79754393  0.74222308    -0.05700
C2045       C  0.59850692  0.78282594  0.74858112    -0.32700
C2046       C  0.62094938  0.78394195  0.76340911     0.36400
H2047       H  0.60949692  0.82751101  0.77235619     0.16700
O2048       O  0.05091179  0.82884040  0.74705693    -0.60200
H2049       H  0.59534127  0.77019751  0.74219346     0.16700
O2050       O  0.63716755  0.76887357  0.76948361    -0.60300
H2051       H  0.66015039  0.76748586  0.76247490     0.43700
H2052       H  0.06919851  0.83449406  0.73921003     0.43700
C2053       C  0.75564185  0.67789016  0.83082044    -0.05400
C2054       C  0.72577535  0.68044747  0.84241705    -0.32800
C2055       C  0.71400795  0.66713979  0.85360735     0.36400
C2056       C  0.73168290  0.65072326  0.85325719    -0.05700
C2057       C  0.76072335  0.64780799  0.84135628    -0.32700
C2058       C  0.77309810  0.66127458  0.83033508     0.36400
H2059       H  0.71124634  0.69286054  0.84292936     0.16700
O2060       O  0.68410673  0.67008270  0.86435402    -0.60200
H2061       H  0.77459465  0.63521298  0.84098067     0.16700
O2062       O  0.80239606  0.65801280  0.81932590    -0.60300
H2063       H  0.82471451  0.66117530  0.82623490     0.43700
H2064       H  0.69331371  0.67780713  0.87390966     0.43700
C2065       C  0.74544552  0.74024075  0.81440128    -0.05400
C2066       C  0.76114449  0.75469790  0.80576259    -0.32800
C2067       C  0.74301368  0.77087094  0.80541583     0.36400
C2068       C  0.70895693  0.77295539  0.81400453    -0.05700
C2069       C  0.69408302  0.75898820  0.82351653    -0.32700
C2070       C  0.71189356  0.74265803  0.82370339     0.36400
H2071       H  0.78691559  0.75334517  0.79861141     0.16700
O2072       O  0.75756581  0.78426967  0.79567802    -0.60200
H2073       H  0.66731716  0.76039191  0.82980083     0.16700
O2074       O  0.69511210  0.72900714  0.83218932    -0.60300
H2075       H  0.67819238  0.72373982  0.82336381     0.43700
H2076       H  0.77620441  0.78986029  0.80344073     0.43700
C2077       C  0.88156001  0.67379137  0.68900775    -0.05400
C2078       C  0.87191421  0.65659720  0.69329566    -0.32800
C2079       C  0.86030178  0.64475637  0.68032249     0.36400
C2080       C  0.85726195  0.65013026  0.66257528    -0.05700
C2081       C  0.86755814  0.66737271  0.65833031    -0.32700
C2082       C  0.87995390  0.67906097  0.67127864     0.36400
H2083       H  0.87391360  0.65217701  0.70679287     0.16700
O2084       O  0.85349457  0.62781552  0.68517878    -0.60200
H2085       H  0.86553641  0.67206832  0.64496463     0.16700
O2086       O  0.88867023  0.69586669  0.66653542    -0.60300
H2087       H  0.91454246  0.69524507  0.66221492     0.43700
H2088       H  0.82970593  0.62821657  0.69168414     0.43700
C2089       C  0.95352263  0.72461723  0.70890644    -0.05400
C2090       C  0.94110777  0.73772695  0.69753189    -0.32800
C2091       C  0.95707546  0.75439061  0.69800420     0.36400
C2092       C  0.98657005  0.75789823  0.70972791    -0.05700
C2093       C  0.00090552  0.74409213  0.71989758    -0.32700
C2094       C  0.98423763  0.72766615  0.71973767     0.36400
H2095       H  0.91699396  0.73550538  0.68934470     0.16700
O2096       O  0.94221426  0.76726752  0.68766199    -0.60200
H2097       H  0.02403245  0.74617759  0.72872107     0.16700
O2098       O  0.99729747  0.71479695  0.73067128    -0.60300
H2099       H  0.98663330  0.71749471  0.74240008     0.43700
H2100       H  0.92095105  0.77199201  0.69445899     0.43700
C2101       C  0.86893802  0.69743161  0.74943423    -0.05400
C2102       C  0.86644523  0.71380590  0.75786593    -0.32800
C2103       C  0.84657938  0.71590972  0.77342297     0.36400
C2104       C  0.82801649  0.70151790  0.78089604    -0.05700
C2105       C  0.83197776  0.68491154  0.77297818    -0.32700
C2106       C  0.85228623  0.68280930  0.75736272     0.36400
H2107       H  0.87925019  0.72527242  0.75217080     0.16700
O2108       O  0.84506132  0.73224778  0.78098780    -0.60200
H2109       H  0.81840508  0.67360904  0.77858457     0.16700
O2110       O  0.85540229  0.66647155  0.74994728    -0.60300
H2111       H  0.87966359  0.66192135  0.75402137     0.43700
H2112       H  0.86523936  0.73236930  0.78983652     0.43700
loop_ 
_geom_bond_atom_site_label_1 
_geom_bond_atom_site_label_2 
_geom_bond_distance 
_geom_bond_site_symmetry_2 
_ccdc_geom_bond_type 
C1            N2   1.363       .  A
C1            N6   1.365       .  A
C1         C1021   1.492       .  S
N2            C3   1.357       .  A
C3            N4   1.350       .  A
C3         C1033   1.465       .  S
N4            C5   1.352       .  A
C5            N6   1.358       .  A
C5         C1045   1.479       .  S
C7            N8   1.359       .  A
C7           N12   1.360       .  A
C7          C997   1.485       .  S
N8            C9   1.359       .  A
C9           N10   1.358       .  A
C9         C1048   1.482       .  S
N10          C11   1.355       .  A
C11          N12   1.356       .  A
C11        C1009   1.482       .  S
C13          N14   1.363       .  A
C13          N18   1.365       .  A
C13         C976   1.490       .  S
N14          C15   1.359       .  A
C15          N16   1.353       .  A
C15         C985   1.483       .  S
N16          C17   1.349       .  A
C17          N18   1.357       .  A
C17        C1012   1.466       .  S
C19          N24   1.362       .  A
C19        N1076   1.358       .  A
C19         C961   1.480       .  S
N20          C21   1.355       .  A
N20        C1075   1.361       .  A
C21        N1078   1.354       .  A
C21         C988   1.480       .  S
N22          C23   1.355       .  A
N22        C1077   1.354       .  A
C23          N24   1.359       .  A
C23        C1036   1.488       .  S
N25          C29   1.347       .  A
N25          N26   1.320       .  A
N25         Cu33   2.076       .  S
N26          C27   1.339       .  A
N26         Cu32   2.055       .  S
C27          C28   1.384       .  A
C27          H30   1.081       .  S
C28         C925   1.482       .  S
C28          C29   1.389       .  A
C29          H31   1.082       .  S
Cu32         N35   2.055       .  S
Cu33         N43   2.079       .  S
Cu34         N36   2.083       .  S
Cu34         N42   2.084       .  S
N35          C39   1.341       .  A
N35          N36   1.321       .  A
N36          C37   1.349       .  A
C37          C38   1.385       .  A
C37          H40   1.082       .  S
C38         C937   1.471       .  S
C38          C39   1.379       .  A
C39          H41   1.082       .  S
N42          C46   1.344       .  A
N42          N43   1.322       .  A
N43          C44   1.345       .  A
C44          C45   1.392       .  A
C44          H47   1.079       .  S
C45         C949   1.497       .  S
C45          C46   1.391       .  A
C46          H48   1.081       .  S
N49          C53   1.347       .  A
N49          N50   1.322       .  A
N49         Cu57   2.075       .  S
N50          C51   1.342       .  A
N50         Cu56   2.065       .  S
C51          C52   1.382       .  A
C51          H54   1.082       .  S
C52         C901   1.476       .  S
C52          C53   1.385       .  A
C53          H55   1.082       .  S
Cu56         N59   2.064       .  S
Cu57         N67   2.075       .  S
Cu58         N60   2.075       .  S
Cu58         N66   2.076       .  S
N59          C63   1.341       .  A
N59          N60   1.321       .  A
N60          C61   1.347       .  A
C61          C62   1.387       .  A
C61          H64   1.082       .  S
C62         C940   1.478       .  S
C62          C63   1.383       .  A
C63          H65   1.082       .  S
N66          C70   1.343       .  A
N66          N67   1.320       .  A
N67          C68   1.345       .  A
C68          C69   1.393       .  A
C68          H71   1.078       .  S
C69         C916   1.499       .  S
C69          C70   1.392       .  A
C70          H72   1.080       .  S
N73          C77   1.350       .  A
N73          N74   1.321       .  A
N73         Cu81   2.080       .  S
N74          C75   1.335       .  A
N74         Cu80   2.045       .  S
C75          C76   1.378       .  A
C75          H78   1.082       .  S
C76         C928   1.475       .  S
C76          C77   1.389       .  A
C77          H79   1.082       .  S
Cu80         N83   2.047       .  S
Cu81         N91   2.082       .  S
Cu82         N84   2.078       .  S
Cu82         N90   2.081       .  S
N83          C87   1.340       .  A
N83          N84   1.318       .  A
N84          C85   1.349       .  A
C85          C86   1.389       .  A
C85          H88   1.082       .  S
C86         C892   1.479       .  S
C86          C87   1.382       .  A
C87          H89   1.082       .  S
N90          C94   1.342       .  A
N90          N91   1.324       .  A
N91          C92   1.347       .  A
C92          C93   1.388       .  A
C92          H95   1.082       .  S
C93        C1024   1.487       .  S
C93          C94   1.386       .  A
C94          H96   1.080       .  S
N97         C101   1.348       .  A
N97          N98   1.321       .  A
N97        Cu105   2.077       .  S
N98          C99   1.341       .  A
N98        Cu104   2.063       .  S
C99         C100   1.382       .  A
C99         H102   1.082       .  S
C100        C904   1.477       .  S
C100        C101   1.387       .  A
C101        H103   1.082       .  S
Cu104       N107   2.064       .  S
Cu105       N115   2.078       .  S
Cu106       N108   2.076       .  S
Cu106       N114   2.078       .  S
N107        C111   1.342       .  A
N107        N108   1.321       .  A
N108        C109   1.347       .  A
C109        C110   1.386       .  A
C109        H112   1.082       .  S
C110        C889   1.479       .  S
C110        C111   1.384       .  A
C111        H113   1.082       .  S
N114        C118   1.345       .  A
N114        N115   1.323       .  A
N115        C116   1.345       .  A
C116        C117   1.384       .  A
C116        H119   1.082       .  S
C117        C877   1.482       .  S
C117        C118   1.386       .  A
C118        H120   1.081       .  S
N121        C125   1.350       .  A
N121        N122   1.321       .  A
N121       Cu129   2.100       .  S
N122        C123   1.340       .  A
N122       Cu128   2.048       .  S
C123        C124   1.379       .  A
C123        H126   1.082       .  S
C124        C841   1.480       .  S
C124        C125   1.391       .  A
C125        H127   1.082       .  S
Cu128       N131   2.048       .  S
Cu129       N139   2.103       .  S
Cu130       N132   2.071       .  S
Cu130       N138   2.074       .  S
N131        C135   1.336       .  A
N131        N132   1.318       .  A
N132        C133   1.349       .  A
C133        C134   1.391       .  A
C133        H136   1.082       .  S
C134        C856   1.481       .  S
C134        C135   1.383       .  A
C135        H137   1.081       .  S
N138        C142   1.341       .  A
N138        N139   1.324       .  A
N139        C140   1.351       .  A
C140        C141   1.393       .  A
C140        H143   1.081       .  S
C141        C865   1.492       .  S
C141        C142   1.384       .  A
C142        H144   1.081       .  S
N145        C149   1.349       .  A
N145        N146   1.318       .  A
N145       Cu153   2.066       .  S
N146        C147   1.338       .  A
N146       Cu152   2.055       .  S
C147        C148   1.382       .  A
C147        H150   1.081       .  S
C148        C817   1.476       .  S
C148        C149   1.388       .  A
C149        H151   1.082       .  S
Cu152       N155   2.056       .  S
Cu153       N163   2.068       .  S
Cu154       N156   2.081       .  S
Cu154       N162   2.084       .  S
N155        C159   1.338       .  A
N155        N156   1.321       .  A
N156        C157   1.350       .  A
C157        C158   1.388       .  A
C157        H160   1.082       .  S
C158        C853   1.476   1_455  S
C158        C159   1.380       .  A
C159        H161   1.082   1_455  S
N162        C166   1.346       .  A
N162        N163   1.325       .  A
N163        C164   1.341       .  A
C164        C165   1.380       .  A
C164        H167   1.081       .  S
C165        C829   1.476       .  S
C165        C166   1.385       .  A
C166        H168   1.082       .  S
N169        C173   1.344       .  A
N169        N170   1.318       .  A
N169       Cu177   2.059       .  S
N170        C171   1.343       .  A
N170       Cu176   2.064       .  S
C171        C172   1.386       .  A
C171        H174   1.082       .  S
C172        C844   1.481       .  S
C172        C173   1.386       .  A
C173        H175   1.081       .  S
Cu176       N179   2.064       .  S
Cu177       N187   2.059       .  S
Cu178       N180   2.067       .  S
Cu178       N186   2.068       .  S
N179        C183   1.338       .  A
N179        N180   1.321       .  A
N180        C181   1.347       .  A
C181        C182   1.387       .  A
C181        H184   1.082       .  S
C182        C805   1.477       .  S
C182        C183   1.382       .  A
C183        H185   1.081       .  S
N186        C190   1.344       .  A
N186        N187   1.322       .  A
N187        C188   1.339       .  A
C188        C189   1.382       .  A
C188        H191   1.081       .  S
C189        C964   1.478       .  S
C189        C190   1.387       .  A
C190        H192   1.081       .  S
N193        C197   1.347       .  A
N193        N194   1.322       .  A
N193       Cu201   2.074       .  S
N194        C195   1.342       .  A
N194       Cu200   2.067   1_455  S
C195        C196   1.382       .  A
C195        H198   1.082       .  S
C196        C820   1.472       .  S
C196        C197   1.383       .  A
C197        H199   1.082       .  S
Cu200       N203   2.065       .  S
Cu201       N211   2.076       .  S
Cu202       N204   2.067   1_455  S
Cu202       N210   2.068       .  S
N203        C207   1.341       .  A
N203        N204   1.321       .  A
N204        C205   1.346       .  A
C205        C206   1.384       .  A
C205        H208   1.082       .  S
C206        C808   1.474       .  S
C206        C207   1.383       .  A
C207        H209   1.082       .  S
N210        C214   1.343       .  A
N210        N211   1.322       .  A
N211        C212   1.345       .  A
C212        C213   1.386       .  A
C212        H215   1.082       .  S
C213        C793   1.482       .  S
C213        C214   1.385       .  A
C214        H216   1.081       .  S
C217        N218   1.362       .  A
C217        N222   1.358       .  A
C217        C757   1.485       .  S
N218        C219   1.360       .  A
C219        N220   1.359       .  A
C219        C769   1.476       .  S
N220        C221   1.357       .  A
C221        N222   1.355       .  A
C221        C781   1.491       .  S
C223        N224   1.369       .  A
C223        N228   1.364       .  A
C223        C880   1.493       .  S
N224        C225   1.366       .  A
C225        N226   1.353       .  A
C225        C745   1.496       .  S
N226        C227   1.349       .  A
C227        N228   1.353       .  A
C227        C784   1.471       .  S
C229        N230   1.366       .  A
C229       N1290   1.363       .  A
C229        C724   1.492       .  S
N230        C231   1.363       .  A
C231        N232   1.354       .  A
C231        C772   1.490       .  S
N232       C1289   1.351       .  A
C233        N234   1.356       .  A
C233       N1288   1.353       .  A
C233        C733   1.484   1_655  S
N234       C1285   1.364       .  A
C235        N236   1.366       .  A
C235        N240   1.364       .  A
C235        C796   1.491       .  S
N236        C237   1.359       .  A
C237        N238   1.354       .  A
C237        C748   1.476       .  S
N238        C239   1.353       .  A
C239        N240   1.357       .  A
C239        C736   1.486       .  S
N241        C245   1.344       .  A
N241        N242   1.320       .  A
N241       Cu249   2.057       .  S
N242        C243   1.344       .  A
N242       Cu248   2.076       .  S
C243        C244   1.387       .  A
C243        H246   1.082       .  S
C244        C685   1.478       .  S
C244        C245   1.383       .  A
C245        H247   1.082       .  S
Cu248       N251   2.076       .  S
Cu249       N259   2.058       .  S
Cu250       N252   2.074       .  S
Cu250       N258   2.074       .  S
N251        C255   1.341       .  A
N251        N252   1.323       .  A
N252        C253   1.348       .  A
C253        C254   1.385       .  A
C253        H256   1.082       .  S
C254        C700   1.477       .  S
C254        C255   1.383       .  A
C255        H257   1.082       .  S
N258        C262   1.344       .  A
N258        N259   1.321       .  A
N259        C260   1.341       .  A
C260        C261   1.383       .  A
C260        H263   1.081       .  S
C261        C709   1.481       .  S
C261        C262   1.387       .  A
C262        H264   1.082       .  S
N265        C269   1.348       .  A
N265        N266   1.321       .  A
N265       Cu273   2.079       .  S
N266        C267   1.341       .  A
N266       Cu272   2.066       .  S
C267        C268   1.382       .  A
C267        H270   1.082       .  S
C268        C664   1.479       .  S
C268        C269   1.388       .  A
C269        H271   1.082       .  S
Cu272       N275   2.067       .  S
Cu273       N283   2.080       .  S
Cu274       N276   2.070       .  S
Cu274       N282   2.071       .  S
N275        C279   1.340       .  A
N275        N276   1.320       .  A
N276        C277   1.349       .  A
C277        C278   1.387       .  A
C277        H280   1.082       .  S
C278        C697   1.479       .  S
C278        C279   1.383       .  A
C279        H281   1.082       .  S
N282        C286   1.342       .  A
N282        N283   1.323       .  A
N283        C284   1.346       .  A
C284        C285   1.387       .  A
C284        H287   1.082       .  S
C285        C673   1.484       .  S
C285        C286   1.384       .  A
C286        H288   1.080       .  S
N289        C293   1.348       .  A
N289        N290   1.317       .  A
N289       Cu297   2.068       .  S
N290        C291   1.339       .  A
N290       Cu296   2.061       .  S
C291        C292   1.387       .  A
C291        H294   1.081       .  S
C292        C688   1.488       .  S
C292        C293   1.392       .  A
C293        H295   1.081       .  S
Cu296       N299   2.062       .  S
Cu297       N307   2.068       .  S
Cu298       N300   2.085       .  S
Cu298       N306   2.086       .  S
N299        C303   1.341       .  A
N299        N300   1.322       .  A
N300        C301   1.349       .  A
C301        C302   1.389       .  A
C301        H304   1.082       .  S
C302        C649   1.481       .  S
C302        C303   1.382       .  A
C303        H305   1.082       .  S
N306        C310   1.348       .  A
N306        N307   1.323       .  A
N307        C308   1.339       .  A
C308        C309   1.383       .  A
C308        H311   1.080       .  S
C309       C1000   1.485       .  S
C309        C310   1.389       .  A
C310        H312   1.082       .  S
N313        C317   1.344       .  A
N313        N314   1.321       .  A
N313       Cu321   2.070       .  S
N314        C315   1.346       .  A
N314       Cu320   2.081       .  S
C315        C316   1.388       .  A
C315        H318   1.082       .  S
C316        C661   1.482       .  S
C316        C317   1.384       .  A
C317        H319   1.082       .  S
Cu320       N323   2.081       .  S
Cu321       N331   2.070       .  S
Cu322       N324   2.076       .  S
Cu322       N330   2.076       .  S
N323        C327   1.343       .  A
N323        N324   1.322       .  A
N324        C325   1.348       .  A
C325        C326   1.386       .  A
C325        H328   1.082       .  S
C326        C652   1.482       .  S
C326        C327   1.385       .  A
C327        H329   1.082       .  S
N330        C334   1.344       .  A
N330        N331   1.322       .  A
N331        C332   1.346       .  A
C332        C333   1.383       .  A
C332        H335   1.082       .  S
C333        C760   1.475       .  S
C333        C334   1.383       .  A
C334        H336   1.082       .  S
C337        N338   1.365       .  A
C337        N342   1.364       .  A
C337        C952   1.492       .  S
N338        C339   1.360       .  A
C339        N340   1.353       .  A
C339        C637   1.486       .  S
N340        C341   1.352       .  A
C341        N342   1.358       .  A
C341        C628   1.475       .  S
C343        N344   1.364       .  A
C343        N348   1.361       .  A
C343        C712   1.488       .  S
N344        C345   1.360       .  A
C345        N346   1.355       .  A
C345        C613   1.491       .  S
N346        C347   1.355       .  A
C347        N348   1.356       .  A
C347        C640   1.482       .  S
C349        N350   1.366       .  A
C349        N354   1.362       .  A
C349        C868   1.496       .  S
N350        C351   1.363       .  A
C351        N352   1.356       .  A
C351        C625   1.491       .  S
N352        C353   1.352       .  A
C353        N354   1.356       .  A
C353        C604   1.475       .  S
C355        N360   1.362       .  A
C355       N1412   1.366       .  A
C355       C1645   1.494       .  S
N356        C357   1.358       .  A
N356       C1411   1.365       .  A
C357        N358   1.352       .  A
C357        C616   1.471       .  S
N358       C1415   1.352       .  A
C359        N360   1.358       .  A
C359       N1414   1.353       .  A
C359        C601   1.488       .  S
C361        N362   1.364       .  A
C361        N366   1.364       .  A
C361        C913   1.485       .  S
N362        C363   1.358       .  A
C363        N364   1.352       .  A
C363        C577   1.475       .  S
N364        C365   1.354       .  A
C365        N366   1.359       .  A
C365        C568   1.489       .  S
C367        N368   1.365       .  A
C367        N372   1.363       .  A
C367        C676   1.485       .  S
N368        C369   1.358       .  A
C369        N370   1.352       .  A
C369        C580   1.491       .  S
N370        C371   1.353       .  A
C371        N372   1.356       .  A
C371        C553   1.473       .  S
C373        N374   1.365       .  A
C373        N378   1.359       .  A
C373        C832   1.487       .  S
N374        C375   1.359       .  A
C375        N376   1.353       .  A
C375        C565   1.474       .  S
N376        C377   1.353       .  A
C377        N378   1.354       .  A
C377        C541   1.482       .  S
C379        N380   1.368       .  A
C379        N384   1.364       .  A
C379        C532   1.489       .  S
N380        C381   1.362       .  A
C381        N382   1.348       .  A
C381        C556   1.489       .  S
N382        C383   1.346       .  A
C383        N384   1.353       .  A
C383       C1600   1.470       .  S
N385        C389   1.346       .  A
N385        N386   1.320   1_455  A
N385       Cu393   2.076       .  S
N386        C387   1.342       .  A
N386       Cu392   2.064       .  S
C387        C388   1.386   1_655  A
C387        H390   1.082       .  S
C388        C505   1.486       .  S
C388        C389   1.390       .  A
C389        H391   1.080       .  S
Cu392       N395   2.063       .  S
Cu393       N403   2.078       .  S
Cu394       N396   2.080   1_455  S
Cu394       N402   2.081       .  S
N395        C399   1.342       .  A
N395        N396   1.321       .  A
N396        C397   1.347       .  A
C397        C398   1.389       .  A
C397        H400   1.081       .  S
C398       C1573   1.484       .  S
C398        C399   1.385       .  A
C399        H401   1.082       .  S
N402        C406   1.346       .  A
N402        N403   1.323       .  A
N403        C404   1.345       .  A
C404        C405   1.386       .  A
C404        H407   1.081       .  S
C405        C592   1.486       .  S
C405        C406   1.387       .  A
C406        H408   1.082       .  S
N409        C413   1.346       .  A
N409        N410   1.318       .  A
N409       Cu417   2.069       .  S
N410        C411   1.339       .  A
N410       Cu416   2.044       .  S
C411        C412   1.382       .  A
C411        H414   1.081       .  S
C412        C493   1.479       .  S
C412        C413   1.389       .  A
C413        H415   1.082       .  S
Cu416       N419   2.044       .  S
Cu417       N427   2.072       .  S
Cu418       N420   2.088       .  S
Cu418       N426   2.091       .  S
N419        C423   1.336       .  A
N419        N420   1.319       .  A
N420        C421   1.352       .  A
C421        C422   1.393       .  A
C421        H424   1.082       .  S
C422        C520   1.483       .  S
C422        C423   1.380       .  A
C423        H425   1.081       .  S
N426        C430   1.344       .  A
N426        N427   1.325       .  A
N427        C428   1.344       .  A
C428        C429   1.382       .  A
C428        H431   1.082       .  S
C429        C529   1.481       .  S
C429        C430   1.386       .  A
C430        H432   1.081       .  S
N433        C437   1.347       .  A
N433        N434   1.320       .  A
N433       Cu441   2.078       .  S
N434        C435   1.341       .  A
N434       Cu440   2.051       .  S
C435        C436   1.380       .  A
C435        H438   1.082       .  S
C436        C508   1.474       .  S
C436        C437   1.386       .  A
C437        H439   1.082       .  S
Cu440       N443   2.051       .  S
Cu441       N451   2.080       .  S
Cu442       N444   2.077       .  S
Cu442       N450   2.079       .  S
N443        C447   1.337       .  A
N443        N444   1.320       .  A
N444        C445   1.350       .  A
C445        C446   1.388       .  A
C445        H448   1.082       .  S
C446       C1537   1.479       .  S
C446        C447   1.382       .  A
C447        H449   1.082       .  S
N450        C454   1.344       .  A
N450        N451   1.323       .  A
N451        C452   1.345       .  A
C452        C453   1.388       .  A
C452        H455   1.080       .  S
C453        C973   1.490       .  S
C453        C454   1.387       .  A
C454        H456   1.081       .  S
N457        C461   1.348       .  A
N457        N458   1.318       .  A
N457       Cu465   2.084       .  S
N458        C459   1.337       .  A
N458       Cu464   2.040       .  S
C459        C460   1.383       .  A
C459        H462   1.081       .  S
C460        C496   1.487       .  S
C460        C461   1.394       .  A
C461        H463   1.080       .  S
Cu464       N467   2.040       .  S
Cu465       N475   2.088       .  S
Cu466       N468   2.079       .  S
Cu466       N474   2.083       .  S
N467        C471   1.333       .  A
N467        N468   1.317       .  A
N468        C469   1.352       .  A
C469        C470   1.393       .  A
C469        H472   1.081       .  S
C470        C484   1.482       .  S
C470        C471   1.381       .  A
C471        H473   1.082       .  S
N474        C478   1.342       .  A
N474        N475   1.324       .  A
N475        C476   1.347       .  A
C476        C477   1.390       .  A
C476        H479   1.081       .  S
C477        C721   1.494       .  S
C477        C478   1.389       .  A
C478        H480   1.079       .  S
C481       C1502   1.478       .  S
C481        C486   1.408       .  A
C481       C1538   1.405       .  A
C482       C1537   1.405       .  A
C482       C1539   1.407   1_565  A
C482        H487   1.083       .  S
C483        C484   1.411       .  A
C483       C1538   1.407   1_545  A
C483       O1544   1.370       .  S
C484        C485   1.403       .  A
C485        C486   1.390   1_545  A
C485        H489   1.083       .  S
C486        O490   1.372       .  S
O488       C1539   1.370       .  S
O488        H492   0.993       .  S
O490        H491   0.991       .  S
C493        C494   1.403       .  A
C493        C498   1.409       .  A
C494        C495   1.402   1_554  A
C494        H499   1.083       .  S
C495        C496   1.410       .  A
C495        O500   1.370       .  S
C496        C497   1.407       .  A
C497        C498   1.397   1_556  A
C497        H501   1.082       .  S
C498        O502   1.373       .  S
O500        H504   0.992       .  S
O502        H503   0.992       .  S
C505        C506   1.406   1_455  A
C505        C510   1.413       .  A
C506        C507   1.399   1_554  A
C506        H511   1.083       .  S
C507        C508   1.407   1_655  A
C507        O512   1.373       .  S
C508        C509   1.400   1_556  A
C509        C510   1.401       .  A
C509        H513   1.084   1_554  S
C510        O514   1.370       .  S
O512       H1572   0.992       .  S
O514        H515   0.992       .  S
H516       O1568   0.992       .  S
C517       C1454   1.486       .  S
C517        C518   1.403       .  A
C517       C1578   1.413       .  A
C518        C519   1.395       .  A
C518        H523   1.083       .  S
C519        C520   1.411   1_565  A
C519        O524   1.372   1_565  S
C520        C521   1.404       .  A
C521       C1578   1.406   1_545  A
C521        H525   1.083       .  S
C522       C1573   1.413       .  A
C522       C1577   1.404   1_565  A
C522        O526   1.370       .  S
O524        H528   0.990       .  S
O526        H527   0.991       .  S
C529        C530   1.405       .  A
C529        C534   1.406       .  A
C530        C531   1.402       .  A
C530        H535   1.083       .  S
C531        C532   1.414       .  A
C531        O536   1.371       .  S
C532        C533   1.408       .  A
C533        C534   1.397       .  A
C533        H537   1.083       .  S
C534        O538   1.372       .  S
O536        H540   0.993       .  S
O538        H539   0.990       .  S
C541        C542   1.410       .  A
C541        C546   1.411       .  A
C542        C543   1.403       .  A
C542        H547   1.083       .  S
C543        C544   1.407       .  A
C543       O1604   1.372       .  S
C544       C1439   1.473       .  S
C544        C545   1.401       .  A
C545        C546   1.391       .  A
C545        H549   1.084       .  S
C546        O550   1.372       .  S
O548       C1599   1.372       .  S
O548        H552   0.992       .  S
O550        H551   0.991       .  S
C553        C554   1.396       .  A
C553        C558   1.408       .  A
C554        C555   1.387       .  A
C554        H559   1.085       .  S
C555        C556   1.419       .  A
C555        O560   1.372       .  S
C556        C557   1.409       .  A
C557        C558   1.407       .  A
C557        H561   1.083       .  S
C558        O562   1.371       .  S
O560        H564   0.991       .  S
O562        H563   0.991       .  S
C565        C566   1.404       .  A
C565        C570   1.405       .  A
C566        C567   1.406       .  A
C566        H571   1.083       .  S
C567        C568   1.414       .  A
C567        O572   1.371       .  S
C568        C569   1.407       .  A
C569        C570   1.393       .  A
C569        H573   1.083       .  S
C570        O574   1.373       .  S
O572        H576   0.991       .  S
O574        H575   0.991       .  S
C577        C578   1.404       .  A
C577        C582   1.405       .  A
C578        C579   1.407       .  A
C578        H583   1.084       .  S
C579        C580   1.415       .  A
C579        O584   1.371       .  S
C580        C581   1.408       .  A
C581        C582   1.392       .  A
C581        H585   1.083       .  S
C582        O586   1.372       .  S
O584        H588   0.991       .  S
O586        H587   0.991       .  S
C589       C1411   1.494       .  S
C589        C590   1.408       .  A
C589       C1650   1.416       .  A
C590        C591   1.403       .  A
C590        H595   1.083       .  S
C591        C592   1.409       .  A
C591        O596   1.372       .  S
C592        C593   1.404       .  A
C593       C1650   1.401       .  A
C593       H1653   1.083       .  S
C594       C1645   1.417       .  A
C594       C1649   1.401       .  A
C594        O598   1.371       .  S
O596        H600   0.993       .  S
H597       C1649   1.083       .  S
O598        H599   0.990       .  S
C601        C602   1.408       .  A
C601        C606   1.416       .  A
C602        C603   1.402       .  A
C602        H607   1.083       .  S
C603        C604   1.407       .  A
C603        O608   1.371       .  S
C604        C605   1.400       .  A
C605        C606   1.397       .  A
C605        H609   1.084       .  S
C606       O1666   1.372       .  S
O608        H612   0.991       .  S
O610       C1662   1.372       .  S
O610        H611   0.991       .  S
C613        C614   1.409       .  A
C613        C618   1.416       .  A
C614        C615   1.405       .  A
C614        H619   1.083       .  S
C615        C616   1.406       .  A
C615        O620   1.372       .  S
C616        C617   1.399       .  A
C617        C618   1.397       .  A
C617        H621   1.084       .  S
C618        O622   1.372       .  S
O620        H624   0.992       .  S
O622        H623   0.991       .  S
C625        C626   1.409       .  A
C625        C630   1.414       .  A
C626        C627   1.395       .  A
C626        H631   1.083       .  S
C627        C628   1.405       .  A
C627        O632   1.373       .  S
C628        C629   1.403       .  A
C629        C630   1.406       .  A
C629        H633   1.084       .  S
C630        O634   1.371       .  S
O632        H636   0.993       .  S
O634        H635   0.991       .  S
C637        C638   1.406       .  A
C637        C642   1.413       .  A
C638        C639   1.406       .  A
C638        H643   1.083       .  S
C639        C640   1.411       .  A
C639        O644   1.371       .  S
C640        C641   1.402       .  A
C641        C642   1.394       .  A
C641        H645   1.084       .  S
C642        O646   1.372       .  S
O644        H648   0.992       .  S
O646        H647   0.992       .  S
C649        C650   1.404       .  A
C649        C654   1.409       .  A
C650        C651   1.405       .  A
C650        H655   1.083       .  S
C651        C652   1.411       .  A
C651        O656   1.371       .  S
C652        C653   1.403       .  A
C653        C654   1.397       .  A
C653        H657   1.084       .  S
C654        O658   1.372       .  S
O656        H660   0.992       .  S
O658        H659   0.992       .  S
C661        C662   1.406       .  A
C661        C666   1.408   1_556  A
C662        C663   1.401   1_556  A
C662        H667   1.083       .  S
C663        C664   1.408       .  A
C663        O668   1.371       .  S
C664        C665   1.404       .  A
C665        C666   1.401       .  A
C665        H669   1.084       .  S
C666        O670   1.372   1_554  S
O668        H672   0.992       .  S
O670        H671   0.993       .  S
C673        C674   1.404       .  A
C673        C678   1.411       .  A
C674        C675   1.401       .  A
C674        H679   1.083       .  S
C675        C676   1.413       .  A
C675        O680   1.371       .  S
C676        C677   1.404       .  A
C677        C678   1.397       .  A
C677        H681   1.083       .  S
C678        O682   1.371       .  S
O680        H684   0.991       .  S
O682        H683   0.993       .  S
C685        C686   1.404       .  A
C685        C690   1.405       .  A
C686        C687   1.403   1_554  A
C686        H691   1.083       .  S
C687        C688   1.414       .  A
C687        O692   1.371       .  S
C688        C689   1.407       .  A
C689        C690   1.396   1_556  A
C689        H693   1.082       .  S
C690        O694   1.371       .  S
O692        H696   0.992       .  S
O694        H695   0.991       .  S
C697        C698   1.403       .  A
C697        C702   1.410       .  A
C698        C699   1.394       .  A
C698        H703   1.084       .  S
C699        C700   1.406       .  A
C699        O704   1.371       .  S
C700        C701   1.405       .  A
C701        C702   1.406       .  A
C701        H705   1.083       .  S
C702        O706   1.371       .  S
O704        H708   0.992       .  S
O706        H707   0.992       .  S
C709        C710   1.402       .  A
C709        C714   1.410       .  A
C710        C711   1.398       .  A
C710        H715   1.083       .  S
C711        C712   1.414       .  A
C711        O716   1.371       .  S
C712        C713   1.406       .  A
C713        C714   1.399       .  A
C713        H717   1.083       .  S
C714        O718   1.371       .  S
O716        H720   0.990       .  S
O718        H719   0.992       .  S
C721        C722   1.408       .  A
C721        C726   1.413       .  A
C722        C723   1.404       .  A
C722        H727   1.082       .  S
C723        C724   1.412       .  A
C723        O728   1.371       .  S
C724        C725   1.406       .  A
C725        C726   1.398       .  A
C725       H1785   1.083       .  S
C726        O730   1.370       .  S
O728        H732   0.992       .  S
H729       C1781   1.083   1_455  S
O730        H731   0.993       .  S
C733        C734   1.403       .  A
C733       C1794   1.412       .  A
C734        C735   1.394       .  A
C734        H739   1.084       .  S
C735        C736   1.412       .  A
C735        O740   1.372       .  S
C736       C1793   1.407       .  A
C737        C738   1.404       .  A
C737       C1792   1.408       .  A
C737        H741   1.083       .  S
C738       C1789   1.409       .  A
C738        O742   1.371       .  S
O740        H744   0.991       .  S
O742        H743   0.993       .  S
C745        C746   1.410       .  A
C745        C750   1.420       .  A
C746        C747   1.409       .  A
C746        H751   1.083       .  S
C747        C748   1.408       .  A
C747        O752   1.371       .  S
C748        C749   1.397       .  A
C749        C750   1.393       .  A
C749        H753   1.084       .  S
C750        O754   1.372       .  S
O752        H756   0.992       .  S
O754        H755   0.991       .  S
C757        C758   1.406       .  A
C757        C762   1.415       .  A
C758        C759   1.402       .  A
C758        H763   1.083       .  S
C759        C760   1.408       .  A
C759        O764   1.371       .  S
C760        C761   1.400       .  A
C761        C762   1.397       .  A
C761        H765   1.084       .  S
C762        O766   1.372       .  S
O764        H768   0.992       .  S
O766        H767   0.992       .  S
C769        C770   1.405       .  A
C769        C774   1.404       .  A
C770        C771   1.406       .  A
C770        H775   1.083       .  S
C771        C772   1.413       .  A
C771        O776   1.371       .  S
C772        C773   1.409       .  A
C773        C774   1.396       .  A
C773        H777   1.083       .  S
C774        O778   1.373       .  S
O776        H780   0.992       .  S
O778        H779   0.992       .  S
C781        C782   1.411       .  A
C781        C786   1.414       .  A
C782        C783   1.402       .  A
C782        H787   1.083       .  S
C783        C784   1.405       .  A
C783        O788   1.372       .  S
C784        C785   1.400       .  A
C785        C786   1.398       .  A
C785        H789   1.084       .  S
C786        O790   1.372       .  S
O788        H792   0.992       .  S
O790        H791   0.992       .  S
C793        C794   1.403       .  A
C793        C798   1.408       .  A
C794        C795   1.402       .  A
C794        H799   1.083       .  S
C795        C796   1.414       .  A
C795        O800   1.371       .  S
C796        C797   1.408       .  A
C797        C798   1.398       .  A
C797        H801   1.083       .  S
C798        O802   1.372       .  S
O800        H804   0.992       .  S
O802        H803   0.992   1_455  S
C805        C810   1.409       .  A
C805       C1862   1.405       .  A
C806        C807   1.402   1_565  A
C806       C1861   1.405       .  A
C806        H811   1.083       .  S
C807        C808   1.410       .  A
C807        O812   1.371   1_655  S
C808        C809   1.401       .  A
C809       C1866   1.393   1_545  A
C809       H1869   1.084       .  S
C810       C1865   1.393   1_565  A
C810        O814   1.372       .  S
O812        H816   0.992   1_455  S
H813       C1865   1.084       .  S
O814        H815   0.992       .  S
C817        C818   1.404       .  A
C817        C822   1.409       .  A
C818        C819   1.404       .  A
C818        H823   1.083       .  S
C819        C820   1.408       .  A
C819        O824   1.371       .  S
C820        C821   1.400       .  A
C821        C822   1.397       .  A
C821        H825   1.084       .  S
C822        O826   1.373       .  S
O824        H828   0.991       .  S
O826        H827   0.992       .  S
C829        C830   1.400       .  A
C829        C834   1.409       .  A
C830        C831   1.398       .  A
C830        H835   1.084       .  S
C831        C832   1.417       .  A
C831        O836   1.372       .  S
C832        C833   1.405       .  A
C833        C834   1.397       .  A
C833        H837   1.083       .  S
C834        O838   1.371       .  S
O836        H840   0.992       .  S
O838        H839   0.993       .  S
C841        C842   1.402       .  A
C841        C846   1.410       .  A
C842        C843   1.403       .  A
C842        H847   1.083       .  S
C843        C844   1.411       .  A
C843        O848   1.371       .  S
C844        C845   1.403       .  A
C845        C846   1.398       .  A
C845        H849   1.083       .  S
C846        O850   1.372       .  S
O848        H852   0.992       .  S
O850        H851   0.991       .  S
C853        C858   1.408   1_645  A
C853       C1910   1.401       .  A
C854        C855   1.392   1_545  A
C854       C1909   1.399       .  A
C854        H859   1.084       .  S
C855        C856   1.411       .  A
C855        O860   1.371       .  S
C856       C1913   1.407       .  A
C857        C858   1.406       .  A
C857       C1912   1.407   1_455  A
C857        H861   1.083       .  S
C858        O862   1.371   1_565  S
O860        H864   0.990       .  S
O862        H863   0.991       .  S
C865        C866   1.405       .  A
C865        C870   1.411       .  A
C866        C867   1.398       .  A
C866        H871   1.082       .  S
C867        C868   1.414       .  A
C867        O872   1.372       .  S
C868        C869   1.409       .  A
C869        C870   1.406       .  A
C869        H873   1.083       .  S
C870        O874   1.371       .  S
O872        H876   0.990       .  S
O874        H875   0.993       .  S
C877        C878   1.405       .  A
C877        C882   1.407       .  A
C878        C879   1.405       .  A
C878        H883   1.083       .  S
C879        C880   1.413       .  A
C879        O884   1.371       .  S
C880        C881   1.409       .  A
C881        C882   1.399       .  A
C881        H885   1.083       .  S
C882        O886   1.372       .  S
O884        H888   0.993       .  S
O886        H887   0.990       .  S
C889        C890   1.405       .  A
C889        C894   1.408       .  A
C890        C891   1.403       .  A
C890        H895   1.083       .  S
C891        C892   1.410       .  A
C891        O896   1.371       .  S
C892        C893   1.403       .  A
C893        C894   1.396       .  A
C893        H897   1.084       .  S
C894        O898   1.371       .  S
O896        H900   0.991       .  S
O898        H899   0.991       .  S
C901        C902   1.402       .  A
C901        C906   1.409       .  A
C902        C903   1.396       .  A
C902        H907   1.084       .  S
C903        C904   1.408       .  A
C903        O908   1.372       .  S
C904        C905   1.404       .  A
C905        C906   1.403       .  A
C905        H909   1.083       .  S
C906        O910   1.371       .  S
O908        H912   0.991       .  S
O910        H911   0.993       .  S
C913        C914   1.403       .  A
C913        C918   1.409       .  A
C914        C915   1.401       .  A
C914        H919   1.084       .  S
C915        C916   1.417       .  A
C915        O920   1.369       .  S
C916        C917   1.409       .  A
C917        C918   1.399       .  A
C917        H921   1.080       .  S
C918        O922   1.372       .  S
O920        H924   0.991       .  S
O922        H923   0.991       .  S
C925        C926   1.408       .  A
C925        C930   1.411       .  A
C926        C927   1.403       .  A
C926        H931   1.083       .  S
C927        C928   1.406       .  A
C927        O932   1.371       .  S
C928        C929   1.402       .  A
C929        C930   1.392       .  A
C929        H933   1.084       .  S
C930        O934   1.371       .  S
O932        H936   0.992       .  S
O934        H935   0.992       .  S
C937        C938   1.401       .  A
C937        C942   1.406       .  A
C938        C939   1.402       .  A
C938        H943   1.084       .  S
C939        C940   1.411       .  A
C939        O944   1.371       .  S
C940        C941   1.404       .  A
C941        C942   1.397       .  A
C941        H945   1.084       .  S
C942        O946   1.372       .  S
O944        H948   0.992       .  S
O946        H947   0.992       .  S
C949        C950   1.408       .  A
C949        C954   1.415       .  A
C950        C951   1.400       .  A
C950        H955   1.081       .  S
C951        C952   1.412       .  A
C951        O956   1.372       .  S
C952        C953   1.407       .  A
C953        C954   1.402       .  A
C953        H957   1.083       .  S
C954        O958   1.370       .  S
O956        H960   0.992       .  S
O958        H959   0.992       .  S
C961        C962   1.407       .  A
C961        C966   1.409       .  A
C962        C963   1.396       .  A
C962        H967   1.083       .  S
C963        C964   1.408       .  A
C963        O968   1.371       .  S
C964        C965   1.405       .  A
C965        C966   1.396       .  A
C965        H969   1.082       .  S
C966        O970   1.371       .  S
O968        H972   0.992       .  S
O970        H971   0.991       .  S
C973        C974   1.406       .  A
C973        C978   1.411       .  A
C974        C975   1.401       .  A
C974        H979   1.082       .  S
C975        C976   1.413       .  A
C975        O980   1.372       .  S
C976        C977   1.406       .  A
C977        C978   1.401       .  A
C977        H981   1.083       .  S
C978        O982   1.371       .  S
O980       H2040   0.991       .  S
O982        H983   0.993       .  S
H984       O2036   0.991       .  S
C985        C986   1.407       .  A
C985        C990   1.413       .  A
C986        C987   1.404       .  A
C986        H991   1.083       .  S
C987        C988   1.412       .  A
C987       O2048   1.371       .  S
C988        C989   1.402       .  A
C989        C990   1.391       .  A
C989        H993   1.084       .  S
C990        O994   1.372       .  S
O992       C2043   1.372       .  S
O992        H996   0.992       .  S
O994        H995   0.992       .  S
C997        C998   1.403       .  A
C997       C1002   1.413       .  A
C998        C999   1.395       .  A
C998       H1003   1.083       .  S
C999       C1000   1.412       .  A
C999       O1004   1.371       .  S
C1000      C1001   1.405       .  A
C1001      C1002   1.404       .  A
C1001      H1005   1.083       .  S
C1002      O1006   1.372       .  S
O1004      H1008   0.992       .  S
O1006      H1007   0.992       .  S
C1009      C1010   1.407       .  A
C1009      C1014   1.412       .  A
C1010      C1011   1.401       .  A
C1010      H1015   1.084       .  S
C1011      C1012   1.403       .  A
C1011      O1016   1.371       .  S
C1012      C1013   1.400       .  A
C1013      C1014   1.400       .  A
C1013      H1017   1.084       .  S
C1014      O1018   1.372       .  S
O1016      H1020   0.990       .  S
O1018      H1019   0.992       .  S
C1021      C1022   1.405       .  A
C1021      C1026   1.416       .  A
C1022      C1023   1.396       .  A
C1022      H1027   1.083       .  S
C1023      C1024   1.411       .  A
C1023      O1028   1.370       .  S
C1024      C1025   1.405       .  A
C1025      C1026   1.403       .  A
C1025      H1029   1.083       .  S
C1026      O1030   1.371       .  S
O1028      H1032   0.992       .  S
O1030      H1031   0.992       .  S
C1033      C1034   1.400       .  A
C1033      C1038   1.403       .  A
C1034      C1035   1.402       .  A
C1034      H1039   1.084       .  S
C1035      C1036   1.415       .  A
C1035      O1040   1.370       .  S
C1036      C1037   1.409       .  A
C1037      C1038   1.395       .  A
C1037      H1041   1.083       .  S
C1038      O1042   1.373       .  S
O1040      H1044   0.992       .  S
O1042      H1043   0.992       .  S
C1045      C1046   1.404       .  A
C1045      C1050   1.409       .  A
C1046      C1047   1.392       .  A
C1046      H1051   1.084       .  S
C1047      C1048   1.410       .  A
C1047      O1052   1.372       .  S
C1048      C1049   1.408       .  A
C1049      C1050   1.404       .  A
C1049      H1053   1.083       .  S
C1050      O1054   1.371       .  S
O1052      H1056   0.992       .  S
O1054      H1055   0.992       .  S
C1057      N1058   1.360       .  A
C1057      N1062   1.365       .  A
C1057      C2077   1.478       .  S
N1058      C1059   1.353       .  A
C1059      N1060   1.349       .  A
C1059      C2089   1.459       .  S
N1060      C1061   1.352       .  A
C1061      N1062   1.361       .  A
C1061      C2101   1.480       .  S
C1063      N1064   1.361       .  A
C1063      N1068   1.361       .  A
C1063      C2053   1.488       .  S
N1064      C1065   1.359       .  A
C1065      N1066   1.356       .  A
C1065      C2104   1.483       .  S
N1066      C1067   1.354       .  A
C1067      N1068   1.356       .  A
C1067      C2065   1.487       .  S
C1069      N1070   1.361       .  A
C1069      N1074   1.364       .  A
C1069      C2032   1.489       .  S
N1070      C1071   1.358       .  A
C1071      N1072   1.352       .  A
C1071      C2041   1.480       .  S
N1072      C1073   1.350       .  A
C1073      N1074   1.357       .  A
C1073      C2068   1.464       .  S
C1075      N1080   1.359   1_455  A
C1075      C2017   1.482   1_455  S
N1076      C1077   1.352       .  A
C1077      C2044   1.473       .  S
N1078      C1079   1.354       .  A
C1079      N1080   1.355   1_455  A
C1079      C2092   1.483   1_455  S
N1081      C1085   1.349       .  A
N1081      N1082   1.319       .  A
N1081     Cu1089   2.080       .  S
N1082      C1083   1.337       .  A
N1082     Cu1088   2.050       .  S
C1083      C1084   1.384       .  A
C1083      H1086   1.081       .  S
C1084      C1981   1.483       .  S
C1084      C1085   1.391       .  A
C1085      H1087   1.082       .  S
Cu1088     N1091   2.051       .  S
Cu1089     N1099   2.082       .  S
Cu1090     N1092   2.084       .  S
Cu1090     N1098   2.086       .  S
N1091      C1095   1.340       .  A
N1091      N1092   1.321       .  A
N1092      C1093   1.349       .  A
C1093      C1094   1.386       .  A
C1093      H1096   1.082       .  S
C1094      C1993   1.474       .  S
C1094      C1095   1.379       .  A
C1095      H1097   1.082       .  S
N1098      C1102   1.346       .  A
N1098      N1099   1.323       .  A
N1099      C1100   1.344       .  A
C1100      C1101   1.389       .  A
C1100      H1103   1.080       .  S
C1101      C2005   1.494       .  S
C1101      C1102   1.390       .  A
C1102      H1104   1.081       .  S
N1105      C1109   1.345       .  A
N1105      N1106   1.320       .  A
N1105     Cu1113   2.064       .  S
N1106      C1107   1.342       .  A
N1106     Cu1112   2.064       .  S
C1107      C1108   1.383       .  A
C1107      H1110   1.082       .  S
C1108      C1957   1.475       .  S
C1108      C1109   1.384       .  A
C1109      H1111   1.081       .  S
Cu1112     N1115   2.064       .  S
Cu1113     N1123   2.065       .  S
Cu1114     N1116   2.079       .  S
Cu1114     N1122   2.080       .  S
N1115      C1119   1.340       .  A
N1115      N1116   1.321       .  A
N1116      C1117   1.347       .  A
C1117      C1118   1.389       .  A
C1117      H1120   1.081       .  S
C1118      C1996   1.482       .  S
C1118      C1119   1.384       .  A
C1119      H1121   1.082       .  S
N1122      C1126   1.344       .  A
N1122      N1123   1.320       .  A
N1123      C1124   1.342       .  A
C1124      C1125   1.390       .  A
C1124      H1127   1.078       .  S
C1125      C1972   1.497       .  S
C1125      C1126   1.394       .  A
C1126      H1128   1.080       .  S
N1129      C1133   1.348       .  A
N1129      N1130   1.321       .  A
N1129     Cu1137   2.075       .  S
N1130      C1131   1.337       .  A
N1130     Cu1136   2.050       .  S
C1131      C1132   1.379       .  A
C1131      H1134   1.082       .  S
C1132      C1984   1.473       .  S
C1132      C1133   1.386       .  A
C1133      H1135   1.082       .  S
Cu1136     N1139   2.050       .  S
Cu1137     N1147   2.077       .  S
Cu1138     N1140   2.078       .  S
Cu1138     N1146   2.080       .  S
N1139      C1143   1.339       .  A
N1139      N1140   1.318       .  A
N1140      C1141   1.349       .  A
C1141      C1142   1.391       .  A
C1141      H1144   1.081       .  S
C1142      C1948   1.484       .  S
C1142      C1143   1.383       .  A
C1143      H1145   1.082       .  S
N1146      C1150   1.342       .  A
N1146      N1147   1.322       .  A
N1147      C1148   1.345       .  A
C1148      C1149   1.391       .  A
C1148      H1151   1.081       .  S
C1149      C2080   1.494       .  S
C1149      C1150   1.389       .  A
C1150      H1152   1.078       .  S
N1153      C1157   1.348       .  A
N1153      N1154   1.322       .  A
N1153     Cu1161   2.075       .  S
N1154      C1155   1.340       .  A
N1154     Cu1160   2.062       .  S
C1155      C1156   1.380       .  A
C1155      H1158   1.082       .  S
C1156      C1960   1.472       .  S
C1156      C1157   1.385       .  A
C1157      H1159   1.082       .  S
Cu1160     N1163   2.062       .  S
Cu1161     N1171   2.076       .  S
Cu1162     N1164   2.079       .  S
Cu1162     N1170   2.081       .  S
N1163      C1167   1.342       .  A
N1163      N1164   1.320       .  A
N1164      C1165   1.347       .  A
C1165      C1166   1.388       .  A
C1165      H1168   1.082       .  S
C1166      C1945   1.482       .  S
C1166      C1167   1.385       .  A
C1167      H1169   1.082       .  S
N1170      C1174   1.344       .  A
N1170      N1171   1.322       .  A
N1171      C1172   1.345       .  A
C1172      C1173   1.389       .  A
C1172      H1175   1.081       .  S
C1173      C1933   1.494       .  S
C1173      C1174   1.391       .  A
C1174      H1176   1.079       .  S
N1177      C1181   1.351       .  A
N1177      N1178   1.321       .  A
N1177     Cu1185   2.090       .  S
N1178      C1179   1.339       .  A
N1178     Cu1184   2.054       .  S
C1179      C1180   1.380       .  A
C1179      H1182   1.082       .  S
C1180      C1897   1.480       .  S
C1180      C1181   1.390       .  A
C1181      H1183   1.082       .  S
Cu1184     N1187   2.053       .  S
Cu1185     N1195   2.093       .  S
Cu1186     N1188   2.073       .  S
Cu1186     N1194   2.075       .  S
N1187      C1191   1.337       .  A
N1187      N1188   1.317       .  A
N1188      C1189   1.350       .  A
C1189      C1190   1.392       .  A
C1189      H1192   1.082       .  S
C1190      C1912   1.484       .  S
C1190      C1191   1.384       .  A
C1191      H1193   1.081       .  S
N1194      C1198   1.340       .  A
N1194      N1195   1.325       .  A
N1195      C1196   1.349       .  A
C1196      C1197   1.390   1_655  A
C1196      H1199   1.081       .  S
C1197      C1921   1.487       .  S
C1197      C1198   1.384   1_455  A
C1198      H1200   1.081   1_655  S
N1201      C1205   1.348       .  A
N1201      N1202   1.319       .  A
N1201     Cu1209   2.065       .  S
N1202      C1203   1.338       .  A
N1202     Cu1208   2.051       .  S
C1203      C1204   1.381       .  A
C1203      H1206   1.081       .  S
C1204      C1873   1.473       .  S
C1204      C1205   1.386       .  A
C1205      H1207   1.082       .  S
Cu1208     N1211   2.051       .  S
Cu1209     N1219   2.067       .  S
Cu1210     N1212   2.074       .  S
Cu1210     N1218   2.077       .  S
N1211      C1215   1.337       .  A
N1211      N1212   1.320       .  A
N1212      C1213   1.350       .  A
C1213      C1214   1.387       .  A
C1213      H1216   1.082       .  S
C1214      C1909   1.472       .  S
C1214      C1215   1.379       .  A
C1215      H1217   1.082       .  S
N1218      C1222   1.344       .  A
N1218      N1219   1.325       .  A
N1219      C1220   1.342       .  A
C1220      C1221   1.381       .  A
C1220      H1223   1.082       .  S
C1221      C1885   1.474       .  S
C1221      C1222   1.383       .  A
C1222      H1224   1.082       .  S
N1225      C1229   1.346       .  A
N1225      N1226   1.319       .  A
N1225     Cu1233   2.064       .  S
N1226      C1227   1.343       .  A
N1226     Cu1232   2.071       .  S
C1227      C1228   1.387       .  A
C1227      H1230   1.082       .  S
C1228      C1900   1.485       .  S
C1228      C1229   1.388       .  A
C1229      H1231   1.081       .  S
Cu1232     N1235   2.070       .  S
Cu1233     N1243   2.065       .  S
Cu1234     N1236   2.060       .  S
Cu1234     N1242   2.060       .  S
N1235      C1239   1.339       .  A
N1235      N1236   1.321       .  A
N1236      C1237   1.347       .  A
C1237      C1238   1.385       .  A
C1237      H1240   1.082       .  S
C1238      C1861   1.476       .  S
C1238      C1239   1.383       .  A
C1239      H1241   1.082       .  S
N1242      C1246   1.343       .  A
N1242      N1243   1.323       .  A
N1243      C1244   1.340       .  A
C1244      C1245   1.381       .  A
C1244      H1247   1.082       .  S
C1245      C2020   1.471       .  S
C1245      C1246   1.382       .  A
C1246      H1248   1.082       .  S
N1249      C1253   1.345       .  A
N1249      N1250   1.322       .  A
N1249     Cu1257   2.065       .  S
N1250      C1251   1.340       .  A
N1250     Cu1256   2.059       .  S
C1251      C1252   1.380       .  A
C1251      H1254   1.082       .  S
C1252      C1876   1.468       .  S
C1252      C1253   1.382       .  A
C1253      H1255   1.082       .  S
Cu1256     N1259   2.058       .  S
Cu1257     N1267   2.066       .  S
Cu1258     N1260   2.064       .  S
Cu1258     N1266   2.066       .  S
N1259      C1263   1.340       .  A
N1259      N1260   1.320       .  A
N1260      C1261   1.345       .  A
C1261      C1262   1.384       .  A
C1261      H1264   1.082       .  S
C1262      C1864   1.473       .  S
C1262      C1263   1.382       .  A
C1263      H1265   1.082       .  S
N1266      C1270   1.342       .  A
N1266      N1267   1.322       .  A
N1267      C1268   1.343       .  A
C1268      C1269   1.384       .  A
C1268      H1271   1.082       .  S
C1269      C1849   1.479       .  S
C1269      C1270   1.385       .  A
C1270      H1272   1.081       .  S
C1273      N1274   1.364       .  A
C1273      N1278   1.360       .  A
C1273      C1813   1.490       .  S
N1274      C1275   1.359       .  A
C1275      N1276   1.357       .  A
C1275      C1825   1.477       .  S
N1276      C1277   1.355       .  A
C1277      N1278   1.357       .  A
C1277      C1837   1.491       .  S
C1279      N1280   1.366       .  A
C1279      N1284   1.366       .  A
C1279      C1936   1.494       .  S
N1280      C1281   1.362       .  A
C1281      N1282   1.352       .  A
C1281      C1801   1.485       .  S
N1282      C1283   1.350       .  A
C1283      N1284   1.357       .  A
C1283      C1840   1.475       .  S
C1285      N1286   1.365       .  A
C1285      C1780   1.493       .  S
N1286      C1287   1.362       .  A
C1287      N1288   1.356       .  A
C1287      C1828   1.491       .  S
C1289      N1290   1.355       .  A
C1289      C1789   1.476       .  S
C1291      N1292   1.364       .  A
C1291      N1296   1.363       .  A
C1291      C1852   1.487       .  S
N1292      C1293   1.358       .  A
C1293      N1294   1.353       .  A
C1293      C1804   1.475       .  S
N1294      C1295   1.351       .  A
C1295      N1296   1.355       .  A
C1295      C1792   1.484       .  S
N1297      C1301   1.344       .  A
N1297      N1298   1.320       .  A
N1297     Cu1305   2.057       .  S
N1298      C1299   1.344       .  A
N1298     Cu1304   2.073       .  S
C1299      C1300   1.386       .  A
C1299      H1302   1.082       .  S
C1300      C1741   1.476       .  S
C1300      C1301   1.382       .  A
C1301      H1303   1.082       .  S
Cu1304     N1307   2.073       .  S
Cu1305     N1315   2.057       .  S
Cu1306     N1308   2.077       .  S
Cu1306     N1314   2.078       .  S
N1307      C1311   1.340       .  A
N1307      N1308   1.323       .  A
N1308      C1309   1.349       .  A
C1309      C1310   1.386       .  A
C1309      H1312   1.082       .  S
C1310      C1756   1.479       .  S
C1310      C1311   1.383       .  A
C1311      H1313   1.082       .  S
N1314      C1318   1.345       .  A
N1314      N1315   1.322       .  A
N1315      C1316   1.341       .  A
C1316      C1317   1.382       .  A
C1316      H1319   1.081       .  S
C1317      C1765   1.478       .  S
C1317      C1318   1.387       .  A
C1318      H1320   1.082       .  S
N1321      C1325   1.347       .  A
N1321      N1322   1.321       .  A
N1321     Cu1329   2.069       .  S
N1322      C1323   1.339       .  A
N1322     Cu1328   2.060       .  S
C1323      C1324   1.380       .  A
C1323      H1326   1.082       .  S
C1324      C1720   1.473       .  S
C1324      C1325   1.386       .  A
C1325      H1327   1.082       .  S
Cu1328     N1331   2.062       .  S
Cu1329     N1339   2.071       .  S
Cu1330     N1332   2.065       .  S
Cu1330     N1338   2.066       .  S
N1331      C1335   1.339       .  A
N1331      N1332   1.319       .  A
N1332      C1333   1.349       .  A
C1333      C1334   1.387       .  A
C1333      H1336   1.081       .  S
C1334      C1753   1.480       .  S
C1334      C1335   1.384       .  A
C1335      H1337   1.082       .  S
N1338      C1342   1.340       .  A
N1338      N1339   1.323       .  A
N1339      C1340   1.344       .  A
C1340      C1341   1.385       .  A
C1340      H1343   1.082       .  S
C1341      C1729   1.478       .  S
C1341      C1342   1.383       .  A
C1342      H1344   1.080       .  S
N1345      C1349   1.349       .  A
N1345      N1346   1.319       .  A
N1345     Cu1353   2.075       .  S
N1346      C1347   1.339       .  A
N1346     Cu1352   2.059       .  S
C1347      C1348   1.384       .  A
C1347      H1350   1.082       .  S
C1348      C1744   1.484       .  S
C1348      C1349   1.391       .  A
C1349      H1351   1.081       .  S
Cu1352     N1355   2.060       .  S
Cu1353     N1363   2.077       .  S
Cu1354     N1356   2.084       .  S
Cu1354     N1362   2.085       .  S
N1355      C1359   1.341       .  A
N1355      N1356   1.321       .  A
N1356      C1357   1.348       .  A
C1357      C1358   1.390       .  A
C1357      H1360   1.082       .  S
C1358      C1705   1.483       .  S
C1358      C1359   1.383       .  A
C1359      H1361   1.082       .  S
N1362      C1366   1.348       .  A
N1362      N1363   1.325       .  A
N1363      C1364   1.342       .  A
C1364      C1365   1.381       .  A
C1364      H1367   1.082       .  S
C1365      C2056   1.476       .  S
C1365      C1366   1.384       .  A
C1366      H1368   1.082       .  S
N1369      C1373   1.343       .  A
N1369      N1370   1.322       .  A
N1369     Cu1377   2.062       .  S
N1370      C1371   1.345       .  A
N1370     Cu1376   2.082       .  S
C1371      C1372   1.387       .  A
C1371      H1374   1.081       .  S
C1372      C1717   1.478       .  S
C1372      C1373   1.382       .  A
C1373      H1375   1.082       .  S
Cu1376     N1379   2.082       .  S
Cu1377     N1387   2.063       .  S
Cu1378     N1380   2.077       .  S
Cu1378     N1386   2.077       .  S
N1379      C1383   1.345       .  A
N1379      N1380   1.322       .  A
N1380      C1381   1.346       .  A
C1381      C1382   1.387       .  A
C1381      H1384   1.081       .  S
C1382      C1708   1.485       .  S
C1382      C1383   1.387       .  A
C1383      H1385   1.082       .  S
N1386      C1390   1.344       .  A
N1386      N1387   1.321       .  A
N1387      C1388   1.345       .  A
C1388      C1389   1.384       .  A
C1388      H1391   1.082       .  S
C1389      C1816   1.479       .  S
C1389      C1390   1.386       .  A
C1390      H1392   1.082       .  S
C1393      N1394   1.363       .  A
C1393      N1398   1.364       .  A
C1393      C2008   1.493       .  S
N1394      C1395   1.360       .  A
C1395      N1396   1.353       .  A
C1395      C1693   1.484       .  S
N1396      C1397   1.353       .  A
C1397      N1398   1.358       .  A
C1397      C1684   1.474       .  S
C1399      N1400   1.362       .  A
C1399      N1404   1.359       .  A
C1399      C1768   1.486       .  S
N1400      C1401   1.360       .  A
C1401      N1402   1.357       .  A
C1401      C1669   1.490       .  S
N1402      C1403   1.357       .  A
C1403      N1404   1.356       .  A
C1403      C1696   1.482       .  S
C1405      N1406   1.364       .  A
C1405      N1410   1.360       .  A
C1405      C1924   1.492       .  S
N1406      C1407   1.362       .  A
C1407      N1408   1.358       .  A
C1407      C1681   1.492       .  S
N1408      C1409   1.354       .  A
C1409      N1410   1.354       .  A
C1409      C1660   1.476       .  S
C1411      N1416   1.364       .  A
N1412      C1413   1.360       .  A
C1413      N1414   1.353       .  A
C1413      C1672   1.470       .  S
C1415      N1416   1.360       .  A
C1415      C1657   1.490       .  S
C1417      N1418   1.360       .  A
C1417      N1422   1.366       .  A
C1417      C1969   1.483       .  S
N1418      C1419   1.352       .  A
C1419      N1420   1.350       .  A
C1419      C1633   1.464       .  S
N1420      C1421   1.353       .  A
C1421      N1422   1.362       .  A
C1421      C1624   1.489       .  S
C1423      N1424   1.362       .  A
C1423      N1428   1.363       .  A
C1423      C1732   1.478       .  S
N1424      C1425   1.354       .  A
C1425      N1426   1.350       .  A
C1425      C1636   1.483       .  S
N1426      C1427   1.352       .  A
C1427      N1428   1.357       .  A
C1427      C1609   1.475       .  S
C1429      N1430   1.364       .  A
C1429      N1434   1.360       .  A
C1429      C1888   1.485       .  S
N1430      C1431   1.357       .  A
C1431      N1432   1.351       .  A
C1431      C1621   1.471       .  S
N1432      C1433   1.352       .  A
C1433      N1434   1.355       .  A
C1433      C1597   1.479       .  S
C1435      N1436   1.367       .  A
C1435      N1440   1.365       .  A
C1435      C1588   1.491       .  S
N1436      C1437   1.362       .  A
C1437      N1438   1.349       .  A
C1437      C1612   1.486       .  S
N1438      C1439   1.347   1_655  A
C1439      N1440   1.354   1_455  A
N1441      C1445   1.346       .  A
N1441      N1442   1.319       .  A
N1441     Cu1449   2.070       .  S
N1442      C1443   1.342       .  A
N1442     Cu1448   2.068       .  S
C1443      C1444   1.389       .  A
C1443      H1446   1.082       .  S
C1444      C1561   1.490       .  S
C1444      C1445   1.390       .  A
C1445      H1447   1.080       .  S
Cu1448     N1451   2.067       .  S
Cu1449     N1459   2.072       .  S
Cu1450     N1452   2.085       .  S
Cu1450     N1458   2.086       .  S
N1451      C1455   1.341       .  A
N1451      N1452   1.321       .  A
N1452      C1453   1.349       .  A
C1453      C1454   1.390       .  A
C1453      H1456   1.081       .  S
C1454      C1455   1.384       .  A
C1455      H1457   1.082       .  S
N1458      C1462   1.347       .  A
N1458      N1459   1.323       .  A
N1459      C1460   1.343       .  A
C1460      C1461   1.384       .  A
C1460      H1463   1.081       .  S
C1461      C1648   1.486       .  S
C1461      C1462   1.389       .  A
C1462      H1464   1.082       .  S
N1465      C1469   1.347       .  A
N1465      N1466   1.319       .  A
N1465     Cu1473   2.076       .  S
N1466      C1467   1.339       .  A
N1466     Cu1472   2.048       .  S
C1467      C1468   1.383       .  A
C1467      H1470   1.081       .  S
C1468      C1549   1.482       .  S
C1468      C1469   1.390       .  A
C1469      H1471   1.082       .  S
Cu1472     N1475   2.048       .  S
Cu1473     N1483   2.078       .  S
Cu1474     N1476   2.089       .  S
Cu1474     N1482   2.092       .  S
N1475      C1479   1.338       .  A
N1475      N1476   1.319       .  A
N1476      C1477   1.351       .  A
C1477      C1478   1.392       .  A
C1477      H1480   1.082       .  S
C1478      C1576   1.482       .  S
C1478      C1479   1.380       .  A
C1479      H1481   1.082       .  S
N1482      C1486   1.345       .  A
N1482      N1483   1.325       .  A
N1483      C1484   1.346       .  A
C1484      C1485   1.384       .  A
C1484      H1487   1.082       .  S
C1485      C1585   1.485       .  S
C1485      C1486   1.387       .  A
C1486      H1488   1.081       .  S
N1489      C1493   1.349       .  A
N1489      N1490   1.319       .  A
N1489     Cu1497   2.079       .  S
N1490      C1491   1.339       .  A
N1490     Cu1496   2.051       .  S
C1491      C1492   1.381       .  A
C1491      H1494   1.082       .  S
C1492      C1564   1.477       .  S
C1492      C1493   1.388       .  A
C1493      H1495   1.082       .  S
Cu1496     N1499   2.051       .  S
Cu1497     N1507   2.081       .  S
Cu1498     N1500   2.078       .  S
Cu1498     N1506   2.081       .  S
N1499      C1503   1.337       .  A
N1499      N1500   1.320       .  A
N1500      C1501   1.350       .  A
C1501      C1502   1.388       .  A
C1501      H1504   1.082       .  S
C1502      C1503   1.381       .  A
C1503      H1505   1.082       .  S
N1506      C1510   1.344       .  A
N1506      N1507   1.324       .  A
N1507      C1508   1.344       .  A
C1508      C1509   1.388       .  A
C1508      H1511   1.080       .  S
C1509      C2029   1.489       .  S
C1509      C1510   1.387       .  A
C1510      H1512   1.081       .  S
N1513      C1517   1.349       .  A
N1513      N1514   1.318       .  A
N1513     Cu1521   2.084       .  S
N1514      C1515   1.338       .  A
N1514     Cu1520   2.043       .  S
C1515      C1516   1.383       .  A
C1515      H1518   1.081       .  S
C1516      C1552   1.487       .  S
C1516      C1517   1.394       .  A
C1517      H1519   1.081       .  S
Cu1520     N1523   2.043       .  S
Cu1521     N1531   2.088       .  S
Cu1522     N1524   2.082       .  S
Cu1522     N1530   2.086       .  S
N1523      C1527   1.334       .  A
N1523      N1524   1.318       .  A
N1524      C1525   1.352       .  A
C1525      C1526   1.395       .  A
C1525      H1528   1.081       .  S
C1526      C1540   1.485       .  S
C1526      C1527   1.382       .  A
C1527      H1529   1.082       .  S
N1530      C1534   1.343       .  A
N1530      N1531   1.326       .  A
N1531      C1532   1.347       .  A
C1532      C1533   1.387       .  A
C1532      H1535   1.082       .  S
C1533      C1777   1.488       .  S
C1533      C1534   1.386       .  A
C1534      H1536   1.080       .  S
C1537      C1542   1.408   1_455  A
C1538      H1543   1.083       .  S
C1539      C1540   1.412   1_455  A
C1540      C1541   1.404       .  A
C1541      C1542   1.390   1_545  A
C1541      H1545   1.083       .  S
C1542      O1546   1.372       .  S
O1544      H1548   0.993       .  S
O1546      H1547   0.991       .  S
C1549      C1550   1.404       .  A
C1549      C1554   1.409       .  A
C1550      C1551   1.403   1_554  A
C1550      H1555   1.083       .  S
C1551      C1552   1.410       .  A
C1551      O1556   1.370       .  S
C1552      C1553   1.406       .  A
C1553      C1554   1.397   1_556  A
C1553      H1557   1.082       .  S
C1554      O1558   1.373       .  S
O1556      H1560   0.992       .  S
O1558      H1559   0.993       .  S
C1561      C1562   1.405       .  A
C1561      C1566   1.415       .  A
C1562      C1563   1.397   1_554  A
C1562      H1567   1.082       .  S
C1563      C1564   1.407       .  A
C1563      O1568   1.373       .  S
C1564      C1565   1.401   1_556  A
C1565      C1566   1.404       .  A
C1565      H1569   1.084   1_554  S
C1566      O1570   1.370       .  S
O1570      H1571   0.992       .  S
C1573      C1574   1.403       .  A
C1574      C1575   1.397       .  A
C1574      H1579   1.084       .  S
C1575      C1576   1.410   1_565  A
C1575      O1580   1.372   1_565  S
C1576      C1577   1.403       .  A
C1577      H1581   1.083       .  S
C1578      O1582   1.370       .  S
O1580      H1584   0.992       .  S
O1582      H1583   0.992       .  S
C1585      C1586   1.406       .  A
C1585      C1590   1.408       .  A
C1586      C1587   1.404       .  A
C1586      H1591   1.083       .  S
C1587      C1588   1.414       .  A
C1587      O1592   1.371       .  S
C1588      C1589   1.407       .  A
C1589      C1590   1.398       .  A
C1589      H1593   1.083   1_655  S
C1590      O1594   1.372   1_655  S
O1592      H1596   0.993       .  S
O1594      H1595   0.990   1_455  S
C1597      C1598   1.409       .  A
C1597      C1602   1.411       .  A
C1598      C1599   1.404       .  A
C1598      H1603   1.083       .  S
C1599      C1600   1.407       .  A
C1600      C1601   1.400       .  A
C1601      C1602   1.389       .  A
C1601      H1605   1.084       .  S
C1602      O1606   1.372       .  S
O1604      H1608   0.992   1_455  S
O1606      H1607   0.991       .  S
C1609      C1610   1.399       .  A
C1609      C1614   1.409       .  A
C1610      C1611   1.387       .  A
C1610      H1615   1.084       .  S
C1611      C1612   1.417       .  A
C1611      O1616   1.373       .  S
C1612      C1613   1.408       .  A
C1613      C1614   1.407       .  A
C1613      H1617   1.083       .  S
C1614      O1618   1.371       .  S
O1616      H1620   0.991       .  S
O1618      H1619   0.991       .  S
C1621      C1622   1.403       .  A
C1621      C1626   1.404       .  A
C1622      C1623   1.405       .  A
C1622      H1627   1.083       .  S
C1623      C1624   1.413       .  A
C1623      O1628   1.371       .  S
C1624      C1625   1.409       .  A
C1625      C1626   1.394       .  A
C1625      H1629   1.083       .  S
C1626      O1630   1.373       .  S
O1628      H1632   0.991       .  S
O1630      H1631   0.991       .  S
C1633      C1634   1.402       .  A
C1633      C1638   1.402       .  A
C1634      C1635   1.403       .  A
C1634      H1639   1.084       .  S
C1635      C1636   1.415       .  A
C1635      O1640   1.371       .  S
C1636      C1637   1.407       .  A
C1637      C1638   1.389       .  A
C1637      H1641   1.083       .  S
C1638      O1642   1.372       .  S
O1640      H1644   0.991       .  S
O1642      H1643   0.991       .  S
C1645      C1646   1.407       .  A
C1646      C1647   1.403       .  A
C1646      H1651   1.083       .  S
C1647      C1648   1.410       .  A
C1647      O1652   1.372       .  S
C1648      C1649   1.402       .  A
C1650      O1654   1.371       .  S
O1652      H1656   0.993       .  S
O1654      H1655   0.990       .  S
C1657      C1658   1.407       .  A
C1657      C1662   1.417       .  A
C1658      C1659   1.404       .  A
C1658      H1663   1.083       .  S
C1659      C1660   1.408       .  A
C1659      O1664   1.371       .  S
C1660      C1661   1.399       .  A
C1661      C1662   1.396       .  A
C1661      H1665   1.084       .  S
O1664      H1668   0.991       .  S
O1666      H1667   0.991       .  S
C1669      C1670   1.409       .  A
C1669      C1674   1.415       .  A
C1670      C1671   1.403       .  A
C1670      H1675   1.083       .  S
C1671      C1672   1.405       .  A
C1671      O1676   1.372       .  S
C1672      C1673   1.400       .  A
C1673      C1674   1.399       .  A
C1673      H1677   1.084       .  S
C1674      O1678   1.372       .  S
O1676      H1680   0.992       .  S
O1678      H1679   0.991       .  S
C1681      C1682   1.409       .  A
C1681      C1686   1.416   1_455  A
C1682      C1683   1.396   1_455  A
C1682      H1687   1.083       .  S
C1683      C1684   1.405       .  A
C1683      O1688   1.373       .  S
C1684      C1685   1.403       .  A
C1685      C1686   1.405       .  A
C1685      H1689   1.084       .  S
C1686      O1690   1.371       .  S
O1688      H1692   0.993       .  S
O1690      H1691   0.991       .  S
C1693      C1694   1.404       .  A
C1693      C1698   1.414       .  A
C1694      C1695   1.402       .  A
C1694      H1699   1.083       .  S
C1695      C1696   1.412       .  A
C1695      O1700   1.371       .  S
C1696      C1697   1.402       .  A
C1697      C1698   1.396       .  A
C1697      H1701   1.084       .  S
C1698      O1702   1.372       .  S
O1700      H1704   0.991       .  S
O1702      H1703   0.991       .  S
C1705      C1706   1.404       .  A
C1705      C1710   1.411       .  A
C1706      C1707   1.402       .  A
C1706      H1711   1.083       .  S
C1707      C1708   1.412       .  A
C1707      O1712   1.371       .  S
C1708      C1709   1.404       .  A
C1709      C1710   1.399       .  A
C1709      H1713   1.083       .  S
C1710      O1714   1.372       .  S
O1712      H1716   0.992       .  S
O1714      H1715   0.992       .  S
C1717      C1718   1.406       .  A
C1717      C1722   1.407   1_556  A
C1718      C1719   1.400   1_556  A
C1718      H1723   1.083       .  S
C1719      C1720   1.408       .  A
C1719      O1724   1.372       .  S
C1720      C1721   1.402       .  A
C1721      C1722   1.399       .  A
C1721      H1725   1.084       .  S
C1722      O1726   1.372   1_554  S
O1724      H1728   0.992       .  S
O1726      H1727   0.993       .  S
C1729      C1730   1.405       .  A
C1729      C1734   1.410       .  A
C1730      C1731   1.399       .  A
C1730      H1735   1.083       .  S
C1731      C1732   1.410       .  A
C1731      O1736   1.371       .  S
C1732      C1733   1.404       .  A
C1733      C1734   1.394       .  A
C1733      H1737   1.084       .  S
C1734      O1738   1.371       .  S
O1736      H1740   0.991       .  S
O1738      H1739   0.993       .  S
C1741      C1742   1.405       .  A
C1741      C1746   1.405       .  A
C1742      C1743   1.403   1_554  A
C1742      H1747   1.084       .  S
C1743      C1744   1.412       .  A
C1743      O1748   1.371       .  S
C1744      C1745   1.406       .  A
C1745      C1746   1.396   1_556  A
C1745      H1749   1.083       .  S
C1746      O1750   1.372       .  S
O1748      H1752   0.992       .  S
O1750      H1751   0.992       .  S
C1753      C1754   1.402       .  A
C1753      C1758   1.411       .  A
C1754      C1755   1.392       .  A
C1754      H1759   1.083       .  S
C1755      C1756   1.407       .  A
C1755      O1760   1.371       .  S
C1756      C1757   1.407       .  A
C1757      C1758   1.407       .  A
C1757      H1761   1.083       .  S
C1758      O1762   1.371       .  S
O1760      H1764   0.991       .  S
O1762      H1763   0.992       .  S
C1765      C1766   1.401       .  A
C1765      C1770   1.409       .  A
C1766      C1767   1.399       .  A
C1766      H1771   1.083       .  S
C1767      C1768   1.414       .  A
C1767      O1772   1.372       .  S
C1768      C1769   1.406       .  A
C1769      C1770   1.399       .  A
C1769      H1773   1.083       .  S
C1770      O1774   1.372       .  S
O1772      H1776   0.991       .  S
O1774      H1775   0.992       .  S
C1777      C1778   1.405       .  A
C1777      C1782   1.410       .  A
C1778      C1779   1.404       .  A
C1778      H1783   1.083       .  S
C1779      C1780   1.414       .  A
C1779      O1784   1.371       .  S
C1780      C1781   1.407       .  A
C1781      C1782   1.399       .  A
C1782      O1786   1.372   1_655  S
O1784      H1788   0.992       .  S
O1786      H1787   0.993   1_455  S
C1789      C1790   1.401       .  A
C1790      C1791   1.393       .  A
C1790      H1795   1.084       .  S
C1791      C1792   1.413       .  A
C1791      O1796   1.372       .  S
C1793      C1794   1.407       .  A
C1793      H1797   1.083       .  S
C1794      O1798   1.371       .  S
O1796      H1800   0.992       .  S
O1798      H1799   0.993       .  S
C1801      C1802   1.408       .  A
C1801      C1806   1.415       .  A
C1802      C1803   1.407       .  A
C1802      H1807   1.083       .  S
C1803      C1804   1.408       .  A
C1803      O1808   1.371       .  S
C1804      C1805   1.399       .  A
C1805      C1806   1.391       .  A
C1805      H1809   1.084       .  S
C1806      O1810   1.372       .  S
O1808      H1812   0.992       .  S
O1810      H1811   0.991       .  S
C1813      C1814   1.408       .  A
C1813      C1818   1.416       .  A
C1814      C1815   1.402       .  A
C1814      H1819   1.083       .  S
C1815      C1816   1.409       .  A
C1815      O1820   1.371       .  S
C1816      C1817   1.401       .  A
C1817      C1818   1.397       .  A
C1817      H1821   1.084       .  S
C1818      O1822   1.371       .  S
O1820      H1824   0.992       .  S
O1822      H1823   0.992       .  S
C1825      C1826   1.404       .  A
C1825      C1830   1.404       .  A
C1826      C1827   1.407       .  A
C1826      H1831   1.084       .  S
C1827      C1828   1.414       .  A
C1827      O1832   1.371       .  S
C1828      C1829   1.408       .  A
C1829      C1830   1.395       .  A
C1829      H1833   1.083       .  S
C1830      O1834   1.373       .  S
O1832      H1836   0.992       .  S
O1834      H1835   0.992       .  S
C1837      C1838   1.410       .  A
C1837      C1842   1.414       .  A
C1838      C1839   1.404       .  A
C1838      H1843   1.083       .  S
C1839      C1840   1.406       .  A
C1839      O1844   1.371       .  S
C1840      C1841   1.401       .  A
C1841      C1842   1.397       .  A
C1841      H1845   1.084       .  S
C1842      O1846   1.372       .  S
O1844      H1848   0.992       .  S
O1846      H1847   0.992       .  S
C1849      C1850   1.403       .  A
C1849      C1854   1.408       .  A
C1850      C1851   1.400       .  A
C1850      H1855   1.083       .  S
C1851      C1852   1.414       .  A
C1851      O1856   1.371       .  S
C1852      C1853   1.407       .  A
C1853      C1854   1.395       .  A
C1853      H1857   1.083       .  S
C1854      O1858   1.371       .  S
O1856      H1860   0.992       .  S
O1858      H1859   0.991       .  S
C1861      C1866   1.408       .  A
C1862      C1863   1.402   1_565  A
C1862      H1867   1.083       .  S
C1863      C1864   1.409       .  A
C1863      O1868   1.371       .  S
C1864      C1865   1.401       .  A
C1866      O1870   1.371       .  S
O1868      H1872   0.992       .  S
O1870      H1871   0.992       .  S
C1873      C1874   1.404       .  A
C1873      C1878   1.408       .  A
C1874      C1875   1.402       .  A
C1874      H1879   1.083       .  S
C1875      C1876   1.407       .  A
C1875      O1880   1.371       .  S
C1876      C1877   1.400       .  A
C1877      C1878   1.395       .  A
C1877      H1881   1.084       .  S
C1878      O1882   1.373       .  S
O1880      H1884   0.990       .  S
O1882      H1883   0.992       .  S
C1885      C1886   1.400       .  A
C1885      C1890   1.407       .  A
C1886      C1887   1.397       .  A
C1886      H1891   1.084       .  S
C1887      C1888   1.416       .  A
C1887      O1892   1.372       .  S
C1888      C1889   1.406       .  A
C1889      C1890   1.397       .  A
C1889      H1893   1.083       .  S
C1890      O1894   1.371       .  S
O1892      H1896   0.992       .  S
O1894      H1895   0.992       .  S
C1897      C1898   1.403       .  A
C1897      C1902   1.409       .  A
C1898      C1899   1.406       .  A
C1898      H1903   1.083       .  S
C1899      C1900   1.413       .  A
C1899      O1904   1.371       .  S
C1900      C1901   1.403       .  A
C1901      C1902   1.397       .  A
C1901      H1905   1.083       .  S
C1902      O1906   1.372       .  S
O1904      H1908   0.992       .  S
O1906      H1907   0.991       .  S
C1909      C1914   1.407   1_545  A
C1910      C1911   1.393   1_545  A
C1910      H1915   1.084       .  S
C1911      C1912   1.411       .  A
C1911      O1916   1.371       .  S
C1913      C1914   1.405       .  A
C1913      H1917   1.083       .  S
C1914      O1918   1.371   1_565  S
O1916      H1920   0.990       .  S
O1918      H1919   0.991       .  S
C1921      C1922   1.403       .  A
C1921      C1926   1.411   1_455  A
C1922      C1923   1.395       .  A
C1922      H1927   1.082       .  S
C1923      C1924   1.414       .  A
C1923      O1928   1.371       .  S
C1924      C1925   1.409       .  A
C1925      C1926   1.405   1_455  A
C1925      H1929   1.083   1_455  S
C1926      O1930   1.371       .  S
O1928      H1932   0.990       .  S
O1930      H1931   0.993       .  S
C1933      C1934   1.408       .  A
C1933      C1938   1.412       .  A
C1934      C1935   1.403       .  A
C1934      H1939   1.082       .  S
C1935      C1936   1.414       .  A
C1935      O1940   1.371       .  S
C1936      C1937   1.406       .  A
C1937      C1938   1.400       .  A
C1937      H1941   1.083       .  S
C1938      O1942   1.370       .  S
O1940      H1944   0.993       .  S
O1942      H1943   0.990       .  S
C1945      C1946   1.405       .  A
C1945      C1950   1.408       .  A
C1946      C1947   1.403       .  A
C1946      H1951   1.083       .  S
C1947      C1948   1.411       .  A
C1947      O1952   1.371       .  S
C1948      C1949   1.405       .  A
C1949      C1950   1.397       .  A
C1949      H1953   1.083       .  S
C1950      O1954   1.371       .  S
O1952      H1956   0.992       .  S
O1954      H1955   0.991       .  S
C1957      C1958   1.402       .  A
C1957      C1962   1.410       .  A
C1958      C1959   1.395       .  A
C1958      H1963   1.084       .  S
C1959      C1960   1.406       .  A
C1959      O1964   1.372       .  S
C1960      C1961   1.402       .  A
C1961      C1962   1.402       .  A
C1961      H1965   1.084       .  S
C1962      O1966   1.371       .  S
O1964      H1968   0.991       .  S
O1966      H1967   0.993       .  S
C1969      C1970   1.402       .  A
C1969      C1974   1.411       .  A
C1970      C1971   1.401       .  A
C1970      H1975   1.084       .  S
C1971      C1972   1.418       .  A
C1971      O1976   1.369       .  S
C1972      C1973   1.407       .  A
C1973      C1974   1.397       .  A
C1973      H1977   1.080       .  S
C1974      O1978   1.372       .  S
O1976      H1980   0.993       .  S
O1978      H1979   0.991       .  S
C1981      C1982   1.407       .  A
C1981      C1986   1.412       .  A
C1982      C1983   1.404       .  A
C1982      H1987   1.083       .  S
C1983      C1984   1.406       .  A
C1983      O1988   1.371       .  S
C1984      C1985   1.401       .  A
C1985      C1986   1.392       .  A
C1985      H1989   1.084       .  S
C1986      O1990   1.371       .  S
O1988      H1992   0.992       .  S
O1990      H1991   0.992       .  S
C1993      C1994   1.402       .  A
C1993      C1998   1.406       .  A
C1994      C1995   1.403       .  A
C1994      H1999   1.084       .  S
C1995      C1996   1.413       .  A
C1995      O2000   1.371       .  S
C1996      C1997   1.404       .  A
C1997      C1998   1.396       .  A
C1997      H2001   1.084       .  S
C1998      O2002   1.372       .  S
O2000      H2004   0.992       .  S
O2002      H2003   0.991       .  S
C2005      C2006   1.407       .  A
C2005      C2010   1.413       .  A
C2006      C2007   1.404       .  A
C2006      H2011   1.082       .  S
C2007      C2008   1.415       .  A
C2007      O2012   1.372       .  S
C2008      C2009   1.405       .  A
C2009      C2010   1.399       .  A
C2009      H2013   1.083       .  S
C2010      O2014   1.370       .  S
O2012      H2016   0.992       .  S
O2014      H2015   0.992       .  S
C2017      C2018   1.407   1_655  A
C2017      C2022   1.414       .  A
C2018      C2019   1.396       .  A
C2018      H2023   1.083       .  S
C2019      C2020   1.406   1_455  A
C2019      O2024   1.371       .  S
C2020      C2021   1.400       .  A
C2021      C2022   1.394       .  A
C2021      H2025   1.083       .  S
C2022      O2026   1.371       .  S
O2024      H2028   0.991       .  S
O2026      H2027   0.992       .  S
C2029      C2030   1.406       .  A
C2029      C2034   1.411       .  A
C2030      C2031   1.400       .  A
C2030      H2035   1.082       .  S
C2031      C2032   1.414       .  A
C2031      O2036   1.372       .  S
C2032      C2033   1.405       .  A
C2033      C2034   1.400       .  A
C2033      H2037   1.083       .  S
C2034      O2038   1.371       .  S
O2038      H2039   0.992       .  S
C2041      C2042   1.406       .  A
C2041      C2046   1.413       .  A
C2042      C2043   1.401       .  A
C2042      H2047   1.083       .  S
C2043      C2044   1.410       .  A
C2044      C2045   1.400       .  A
C2045      C2046   1.391       .  A
C2045      H2049   1.084       .  S
C2046      O2050   1.372       .  S
O2048      H2052   0.992       .  S
O2050      H2051   0.992       .  S
C2053      C2054   1.406       .  A
C2053      C2058   1.416       .  A
C2054      C2055   1.396       .  A
C2054      H2059   1.083       .  S
C2055      C2056   1.405       .  A
C2055      O2060   1.372       .  S
C2056      C2057   1.402       .  A
C2057      C2058   1.404       .  A
C2057      H2061   1.084       .  S
C2058      O2062   1.371       .  S
O2060      H2064   0.992       .  S
O2062      H2063   0.992       .  S
C2065      C2066   1.408       .  A
C2065      C2070   1.415       .  A
C2066      C2067   1.397       .  A
C2066      H2071   1.083       .  S
C2067      C2068   1.402       .  A
C2067      O2072   1.372       .  S
C2068      C2069   1.400       .  A
C2069      C2070   1.402       .  A
C2069      H2073   1.084       .  S
C2070      O2074   1.371       .  S
O2072      H2076   0.992       .  S
O2074      H2075   0.992       .  S
C2077      C2078   1.399       .  A
C2077      C2082   1.409       .  A
C2078      C2079   1.400       .  A
C2078      H2083   1.084       .  S
C2079      C2080   1.416       .  A
C2079      O2084   1.370       .  S
C2080      C2081   1.408       .  A
C2081      C2082   1.400       .  A
C2081      H2085   1.081       .  S
C2082      O2086   1.372       .  S
O2084      H2088   0.992       .  S
O2086      H2087   0.992       .  S
C2089      C2090   1.399       .  A
C2089      C2094   1.401       .  A
C2090      C2091   1.399       .  A
C2090      H2095   1.084       .  S
C2091      C2092   1.415       .  A
C2091      O2096   1.370       .  S
C2092      C2093   1.408   1_655  A
C2093      C2094   1.393   1_455  A
C2093      H2097   1.083       .  S
C2094      O2098   1.373       .  S
O2096      H2100   0.992       .  S
O2098      H2099   0.992       .  S
C2101      C2102   1.405       .  A
C2101      C2106   1.408       .  A
C2102      C2103   1.392       .  A
C2102      H2107   1.084       .  S
C2103      C2104   1.411       .  A
C2103      O2108   1.372       .  S
C2104      C2105   1.408       .  A
C2105      C2106   1.404       .  A
C2105      H2109   1.083       .  S
C2106      O2110   1.371       .  S
O2108      H2112   0.992       .  S
O2110      H2111   0.992       .  S
