geometry optimzed in LAMMPS
_audit_creation_date              2020-11-30 
_audit_creation_method            'lammps2cif' 
_symmetry_space_group_name_H-M    'P1' 
_symmetry_Int_Tables_number       1 
_symmetry_cell_setting            triclinic 
loop_ 
_symmetry_equiv_pos_as_xyz 
  x,y,z 
_cell_length_a                    49.13167687 
_cell_length_b                    50.96602315775512 
_cell_length_c                    40.779651615860075 
_cell_angle_alpha                 99.86139409033402 
_cell_angle_beta                  89.9445568449858 
_cell_angle_gamma                 90.13198185054365 
loop_ 
_atom_site_label 
_atom_site_type_symbol 
_atom_site_fract_x 
_atom_site_fract_y 
_atom_site_fract_z 
_atom_site_charge 
C1          C  0.41366314  0.09679468  0.02850423     0.79700
N2          N  0.42168369  0.08931513  0.49744236    -0.78600
C3          C  0.41350279  0.09995917  0.47077631     0.82100
N4          N  0.39625746  0.12096652  0.47589600    -0.78600
C5          C  0.38941244  0.12885396  0.00495503     0.82200
N6          N  0.39828898  0.11932054  0.03226223    -0.80300
C7          C  0.10995221  0.48630951  0.44717211     0.79700
N8          N  0.13074302  0.46849517  0.44178113    -0.78600
C9          C  0.14365832  0.46074536  0.46793069     0.82100
N10         N  0.13417093  0.47013841  0.99970329    -0.78600
C11         C  0.11301812  0.48723562  0.00404629     0.82200
N12         N  0.10320775  0.99601151  0.47916348    -0.80300
Zr13       Zr  0.23746272  0.30749487  0.43563082     2.17500
O14         O  0.19542328  0.30189936  0.40355535    -0.51900
O15         O  0.26155549  0.33341059  0.40040129    -0.75100
O16         O  0.21323091  0.34959744  0.44325802    -0.81900
O17         O  0.26277214  0.23933329  0.39291438    -0.83600
O18         O  0.21988856  0.36815776  0.99996725    -0.79200
O19         O  0.23682644  0.27460766  0.38509266    -0.90900
O20         O  0.30366908  0.34312934  0.42179406    -0.76800
O21         O  0.26384109  0.33821354  0.47304850    -0.86300
O22         O  0.28267436  0.29063930  0.43210847    -0.86000
O23         O  0.21597121  0.30919789  0.48893369    -0.72800
O24         O  0.23438167  0.26451258  0.45160929    -0.84900
Zr25       Zr  0.28848414  0.27740163  0.03785899     2.26400
Zr26       Zr  0.24550172  0.33751400  0.02758685     2.06300
Zr27       Zr  0.27999391  0.24817124  0.44920109     2.10000
Zr28       Zr  0.30882747  0.32132387  0.46985556     1.78800
O29         O  0.26234980  0.20292276  0.43580158    -0.93700
O30         O  0.32012600  0.36785270  0.49012365    -0.41500
O31         O  0.30734955  0.27842353  0.48647098    -0.78100
O32         O  0.29128321  0.32110268  0.02350893    -0.96800
O33         O  0.24332465  0.29451966  0.04325431    -0.90100
O34         O  0.26104037  0.24747918  0.00050447    -0.93000
C35         C  0.28496486  0.34459783  0.40029753     1.00800
C36         C  0.24732913  0.25158193  0.37520608     1.13700
C37         C  0.21019989  0.36887821  0.46770207     1.01900
O38         O  0.26088540  0.38313847  0.04569173    -0.95100
O39         O  0.26380071  0.34487815  0.08355753    -0.90900
O40         O  0.28929798  0.30886945  0.08990354    -0.84000
C41         C  0.27931325  0.33205444  0.10051639     1.11100
O42         O  0.17167006  0.26148023  0.47529421    -0.97100
Zr43       Zr  0.21615917  0.26498401  0.00528117     1.88900
O44         O  0.26437499  0.25185270  0.07358991    -0.73800
O45         O  0.20365167  0.34388588  0.06005383    -0.53000
O46         O  0.17853974  0.28464020  0.03987876    -0.97700
O47         O  0.20099061  0.21997341  0.48798347    -0.54900
O48         O  0.22072467  0.24623950  0.05560745    -0.74300
C49         C  0.23990713  0.24361908  0.07607456     0.98100
O50         O  0.33310632  0.27958885  0.06474816    -0.63100
O51         O  0.32079783  0.23829689  0.41535941    -0.57900
O52         O  0.31513231  0.23664808  0.02638737    -0.94600
O53         O  0.30987619  0.22149480  0.47734602    -0.93000
O54         O  0.34598827  0.30293562  0.43356764    -0.93400
O55         O  0.35278335  0.32672826  0.49777616    -0.92100
C56         C  0.31781900  0.22114261  0.50722291     1.16900
H57         H  0.28975000  0.28899779  0.40974746     0.32900
H58         H  0.30284790  0.33243353  0.03910058     0.43700
H59         H  0.26153200  0.22974873  0.00590266     0.37200
H60         H  0.19771654  0.31613669  0.48847191     0.33700
H61         H  0.33544747  0.37183391  0.47596242     0.25500
H62         H  0.20863388  0.34010370  0.08228860     0.31400
H63         H  0.18637106  0.28951551  0.06246946     0.37300
H64         H  0.35321234  0.31822969  0.42418948     0.31800
H65         H  0.31768990  0.22016170  0.40270153     0.30700
H66         H  0.27835781  0.19185621  0.42788439     0.32400
H67         H  0.21629077  0.20824778  0.00110082     0.31300
H68         H  0.35084540  0.32017882  0.01838714     0.35300
H69         H  0.34634972  0.27464129  0.04641717     0.28100
H70         H  0.19654817  0.31500353  0.38827163     0.32300
H71         H  0.15884914  0.25332881  0.48940656     0.35100
H72         H  0.31984107  0.25004793  0.39842563     0.27800
H73         H  0.33684782  0.29873576  0.07246323     0.40600
H74         H  0.24517761  0.39234523  0.05778226     0.30700
H75         H  0.30461755  0.37803024  0.48324343     0.38300
H76         H  0.21819304  0.21000292  0.48310955     0.30200
H77         H  0.20039002  0.36332921  0.06365941     0.30200
H78         H  0.18082800  0.30851699  0.41956547     0.30500
C79         C  0.20747643  0.19507413  0.18903089     0.79700
N80         N  0.21875072  0.20507200  0.21897499    -0.78600
C81         C  0.21160820  0.19577793  0.24701542     0.82100
N82         N  0.19261786  0.17617555  0.24503307    -0.78600
C83         C  0.18123596  0.16582338  0.21528808     0.82200
N84         N  0.18846596  0.17556251  0.18757533    -0.80300
C85         C  0.31502106  0.39150077  0.28554260     0.79700
N86         N  0.30538344  0.38170639  0.25477156    -0.78600
C87         C  0.31723725  0.38786738  0.22716289     0.82100
N88         N  0.33902170  0.40443101  0.23025231    -0.78600
C89         C  0.34872837  0.41502540  0.26085553     0.82200
N90         N  0.33686898  0.40825535  0.28838201    -0.80300
Zr91       Zr  0.02819555  0.06643600  0.19059659     2.17500
O92         O  0.02455901  0.10597593  0.16477034    -0.51900
O93         O  0.05301720  0.04264335  0.14307208    -0.75100
O94         O  0.07022628  0.09246184  0.19786205    -0.81900
O95         O  0.45423710  0.04795037  0.15658127    -0.83600
O96         O  0.09057710  0.08367264  0.24471322    -0.79200
O97         O  0.49235255  0.07047854  0.14642458    -0.90900
O98         O  0.06002995  0.00062808  0.15190185    -0.76800
O99         O  0.05865335  0.03775044  0.21268872    -0.86300
O100        O  0.00824978  0.02319453  0.17996530    -0.86000
O101        O  0.03120043  0.08499479  0.24892239    -0.72800
O102        O  0.48361894  0.07006733  0.21417136    -0.84900
Zr103      Zr  0.99847673  0.01584468  0.28855900     2.26400
Zr104      Zr  0.06106676  0.05513743  0.27079752     2.06300
Zr105      Zr  0.46339188  0.02672967  0.20442207     2.10000
Zr106      Zr  0.03500272  0.49093339  0.19942070     1.78800
O107        O  0.41757163  0.04500226  0.21077718    -0.93700
O108        O  0.08124107  0.47423727  0.20178522    -0.41500
O109        O  0.49254577  0.99705070  0.22734327    -0.78100
O110        O  0.04197786  0.01120098  0.26133949    -0.96800
O111        O  0.01829633  0.05911678  0.29923467    -0.90100
O112        O  0.46643084  0.04430754  0.26248601    -0.93000
C113        C  0.06252657  0.01908372  0.13435386     1.00800
C114        C  0.46786839  0.06261617  0.13975906     1.13700
C115        C  0.08980033  0.09512570  0.21905652     1.04500
O116        O  0.10533384  0.03352756  0.26440192    -0.95100
O117        O  0.07002619  0.03674707  0.32055704    -0.90900
O118        O  0.03345508  0.01167726  0.32966212    -0.84000
C119        C  0.05756807  0.02080122  0.33659255     1.11100
O120        O  0.48344142  0.13061587  0.25591658    -0.97100
Zr121      Zr  0.48744377  0.08702393  0.27243401     1.88900
O122        O  0.47293328  0.03989196  0.33371581    -0.73800
O123        O  0.07645571  0.09134338  0.31378344    -0.53000
O124        O  0.00612132  0.11884258  0.32325188    -0.97700
O125        O  0.44055198  0.10234757  0.27081696    -0.54900
O126        O  0.46824700  0.08269852  0.32585348    -0.74300
C127        C  0.46515607  0.06404599  0.34298097     0.98100
O128        O  0.00021640  0.46867669  0.30284029    -0.63100
O129        O  0.45391341  0.48919641  0.16163951    -0.57900
O130        O  0.45953374  0.48830233  0.27964742    -0.94600
O131        O  0.43625865  0.99487572  0.22809080    -0.93000
O132        O  0.01258243  0.45678546  0.15923776    -0.93400
O133        O  0.03570456  0.44698132  0.21527328    -0.92100
C134        C  0.44145854  0.48320922  0.25675022     1.16900
H135        H  0.00577440  0.01708105  0.15638795     0.32900
H136        H  0.05348430  0.99907879  0.27076465     0.43700
H137        H  0.44864725  0.04481451  0.27271168     0.37200
H138        H  0.03899768  0.10267864  0.25192417     0.33700
H139        H  0.08266101  0.45970111  0.18235148     0.25500
H140        H  0.09653105  0.09146915  0.31159981     0.31400
H141        H  0.01667472  0.10784473  0.33649466     0.37300
H142        H  0.01454510  0.46271187  0.13747364     0.31800
H143        H  0.43421010  0.49176675  0.15826860     0.30700
H144        H  0.40611622  0.03186978  0.19620801     0.32400
H145        H  0.43011334  0.09224119  0.28530621     0.31300
H146        H  0.01989052  0.44689442  0.23032287     0.35300
H147        H  0.49046942  0.47390236  0.32529442     0.28100
H148        H  0.03978611  0.10470292  0.14865704     0.32300
H149        H  0.47636953  0.14263210  0.27575038     0.35100
H150        H  0.46259277  0.49328505  0.14118245     0.27800
H151        H  0.01975438  0.46390118  0.30125959     0.40600
H152        H  0.11815629  0.04686606  0.27629785     0.30700
H153        H  0.09618603  0.99517512  0.20857955     0.38300
H154        H  0.43424696  0.09505025  0.24802242     0.30200
H155        H  0.07041461  0.10780293  0.30612559     0.30200
H156        H  0.02906987  0.12117802  0.18247449     0.30500
C157        C  0.39441543  0.42391347  0.24006360    -0.20800
C158        C  0.37364583  0.43161945  0.26338288    -0.07400
C159        C  0.37673643  0.45531825  0.28693753     0.13500
C160        C  0.39996786  0.47124828  0.28542382    -0.20900
C161        C  0.41981554  0.46410570  0.26082781    -0.07400
C162        C  0.41743407  0.43985327  0.23848295     0.13400
C163        C  0.43921878  0.43072220  0.21302728    -0.24200
H164        H  0.39247039  0.40541678  0.22263841     0.14700
H165        H  0.40209058  0.48992468  0.30252531     0.14800
C166        C  0.35510434  0.46467672  0.31244816    -0.24200
H167        H  0.43444220  0.41087635  0.19818188     0.05000
H168        H  0.45897857  0.42925038  0.22578080     0.08200
H169        H  0.44122283  0.44505033  0.19552892     0.08200
H170        H  0.35286482  0.45021824  0.32974696     0.08200
H171        H  0.33540443  0.46675867  0.29983140     0.08200
H172        H  0.36031553  0.48429916  0.32757717     0.05000
C173        C  0.13910984  0.10516510  0.22484380    -0.20800
C174        C  0.11336465  0.11243761  0.21430350    -0.07400
C175        C  0.11076715  0.13665827  0.20189365     0.13500
C176        C  0.13358993  0.15324554  0.20170474    -0.20900
C177        C  0.15883685  0.14640585  0.21368635    -0.07400
C178        C  0.16187293  0.12175329  0.22451002     0.13400
C179        C  0.18914460  0.11253333  0.23486707    -0.24200
H180        H  0.14141011  0.08640789  0.23368893     0.14700
H181        H  0.13155906  0.17211211  0.19304190     0.14800
C182        C  0.08401567  0.14581952  0.19000060    -0.24200
H183        H  0.18808254  0.09211762  0.24091406     0.05000
H184        H  0.19644561  0.12597361  0.25728474     0.08200
H185        H  0.20406371  0.11239723  0.21437395     0.08200
H186        H  0.06849808  0.14676835  0.20996971     0.08200
H187        H  0.07745250  0.13190357  0.16748287     0.08200
H188        H  0.08557804  0.16593352  0.18310633     0.05000
C189        C  0.21317996  0.21025773  0.10020939    -0.20800
C190        C  0.23296088  0.23046714  0.10465711    -0.07400
C191        C  0.24425120  0.23878311  0.13661263     0.13500
C192        C  0.23557020  0.22656543  0.16303194    -0.20900
C193        C  0.21563200  0.20633238  0.15892362    -0.07400
C194        C  0.20422926  0.19811535  0.12672188     0.13400
C195        C  0.18246292  0.17696780  0.11953647    -0.24200
H196        H  0.20449148  0.20400400  0.07567481     0.14700
H197        H  0.24445135  0.23329045  0.18731619     0.14800
C198        C  0.26462774  0.26128114  0.14366526    -0.24200
H199        H  0.17617263  0.17349854  0.09298463     0.05000
H200        H  0.16402033  0.18322085  0.13459176     0.08200
H201        H  0.19019631  0.15774488  0.12504723     0.08200
H202        H  0.25615426  0.27950488  0.13603393     0.08200
H203        H  0.28388706  0.25559955  0.13008836     0.08200
H204        H  0.26973722  0.26624350  0.17054187     0.05000
C205        C  0.22911546  0.23629363  0.28338159    -0.20800
C206        C  0.22251954  0.20905835  0.27962194    -0.07400
C207        C  0.22630369  0.19564830  0.30695368     0.13500
C208        C  0.23521483  0.21003915  0.33744047    -0.20900
C209        C  0.24024296  0.23750372  0.34158997    -0.07400
C210        C  0.23782492  0.25070115  0.31397175     0.13400
C211        C  0.24500426  0.27972650  0.31622351    -0.24200
H212        H  0.22676232  0.24665280  0.26246118     0.14700
H213        H  0.23746382  0.19987233  0.35856195     0.14800
C214        C  0.22141851  0.16621625  0.30441866    -0.24200
H215        H  0.24401386  0.28607646  0.29153344     0.05000
H216        H  0.26607203  0.28329233  0.32582925     0.08200
H217        H  0.23053769  0.29232122  0.33287358     0.08200
H218        H  0.23320003  0.15516016  0.28323014     0.08200
H219        H  0.19936494  0.16192799  0.30117173     0.08200
H220        H  0.22790592  0.15884565  0.32729173     0.05000
C221        C  0.31574904  0.34519363  0.14149780    -0.20800
C222        C  0.28797927  0.34573707  0.13370683    -0.07400
C223        C  0.26980280  0.36032645  0.15683097     0.13500
C224        C  0.28001265  0.37412073  0.18708768    -0.20900
C225        C  0.30793858  0.37429341  0.19427274    -0.07400
C226        C  0.32602412  0.35947947  0.17131350     0.13400
C227        C  0.35604292  0.35804594  0.17838380    -0.24200
H228        H  0.32965009  0.33405418  0.12371280     0.14700
H229        H  0.26617420  0.38502420  0.20517931     0.14800
C230        C  0.23964835  0.36085684  0.15022699    -0.24200
H231        H  0.36678923  0.34423271  0.15856237     0.05000
H232        H  0.35922920  0.35085013  0.20229897     0.08200
H233        H  0.36538075  0.37801670  0.17965607     0.08200
H234        H  0.23158506  0.34019444  0.14483421     0.08200
H235        H  0.23559510  0.37108444  0.12881982     0.08200
H236        H  0.22837234  0.37176830  0.17196736     0.05000
C237        C  0.27839148  0.34985481  0.34177242    -0.20800
C238        C  0.29092471  0.35903854  0.37244209    -0.07400
C239        C  0.30876070  0.38115123  0.37526186     0.13500
C240        C  0.31501466  0.39205365  0.34678353    -0.20900
C241        C  0.30412651  0.38148224  0.31533970    -0.07400
C242        C  0.28463377  0.36050589  0.31322492     0.13400
C243        C  0.27041681  0.34839375  0.28134155    -0.24200
H244        H  0.26415956  0.33342123  0.33978803     0.14700
H245        H  0.32917252  0.40858921  0.34912935     0.14800
C246        C  0.32097890  0.39376728  0.40811200    -0.24200
H247        H  0.25520562  0.33310796  0.28532838     0.05000
H248        H  0.28539479  0.33830433  0.26304231     0.08200
H249        H  0.25924323  0.36403219  0.27098939     0.08200
H250        H  0.33546453  0.37983449  0.41689295     0.08200
H251        H  0.30458722  0.39918495  0.42679709     0.08200
H252        H  0.33246615  0.41221290  0.40604954     0.05000
C253        C  0.09498140  0.02089145  0.04905207    -0.20800
C254        C  0.10130433  0.99392616  0.03899119    -0.07400
C255        C  0.09081417  0.47458312  0.05431343     0.13500
C256        C  0.08347004  0.98479443  0.09125929    -0.20900
C257        C  0.07671709  0.01181073  0.10164754    -0.07400
C258        C  0.08317495  0.03025174  0.08024765     0.13400
C259        C  0.07820652  0.05975433  0.08970626    -0.24200
H260        H  0.09946343  0.03475651  0.03234558     0.14700
H261        H  0.07883941  0.97033720  0.10708482     0.14800
C262        C  0.09371796  0.44528552  0.04048082    -0.24200
H263        H  0.08550562  0.07091153  0.07025476     0.05000
H264        H  0.08917123  0.06768967  0.11311390     0.08200
H265        H  0.05615266  0.06365269  0.09289389     0.08200
H266        H  0.11554966  0.43969532  0.03878134     0.08200
H267        H  0.08429913  0.44075635  0.01539396     0.08200
H268        H  0.08359643  0.43264392  0.05653555     0.05000
C269        C  0.11254238  0.99926383  0.39252106    -0.20800
C270        C  0.09581897  0.49460067  0.41871180    -0.07400
C271        C  0.06822138  0.99694579  0.41848778     0.13500
C272        C  0.05620446  0.00577188  0.39121927    -0.20900
C273        C  0.07190562  0.01196651  0.36479970    -0.07400
C274        C  0.10055178  0.00836548  0.36534222     0.13400
C275        C  0.11869863  0.01318053  0.33712555    -0.24200
H276        H  0.13321451  0.49493044  0.39140082     0.14700
H277        H  0.03430387  0.00799381  0.39066697     0.14800
C278        C  0.04905396  0.49362731  0.44637569    -0.24200
H279        H  0.14013826  0.00753188  0.34094066     0.05000
H280        H  0.11867782  0.03463706  0.33524575     0.08200
H281        H  0.11000516  0.49498292  0.31105829     0.08200
H282        H  0.05355186  0.00410607  0.46919859     0.08200
H283        H  0.05228189  0.47321321  0.45170486     0.08200
H284        H  0.02810839  0.99149922  0.43934098     0.05000
C285        C  0.15747802  0.41572676  0.44105234    -0.20800
C286        C  0.16392458  0.43927526  0.46283040    -0.07400
C287        C  0.18757638  0.44044265  0.48264503     0.13500
C288        C  0.20312005  0.41741225  0.48188674    -0.20900
C289        C  0.19539395  0.39308042  0.46236596    -0.07400
C290        C  0.17274297  0.39245546  0.44075476     0.13400
C291        C  0.16338085  0.36720944  0.41891537    -0.24200
H292        H  0.13930337  0.41504148  0.42586602     0.14700
H293        H  0.22094597  0.41820953  0.49768426     0.14800
C294        C  0.19652989  0.46583022  0.50473266    -0.24200
H295        H  0.14460189  0.37032067  0.40494211     0.05000
H296        H  0.15884233  0.35185350  0.43443919     0.08200
H297        H  0.17937896  0.36003748  0.40036200     0.08200
H298        H  0.18170204  0.47171803  0.52515701     0.08200
H299        H  0.19844381  0.48200814  0.48977416     0.08200
H300        H  0.21657906  0.46349089  0.51645200     0.05000
C301        C  0.45476248  0.08338292  0.05574871    -0.20800
C302        C  0.42664177  0.08799859  0.05736074    -0.07400
C303        C  0.41192134  0.08325573  0.08547601     0.13500
C304        C  0.42594004  0.07507420  0.11196617    -0.20900
C305        C  0.45429993  0.07122364  0.11088161    -0.07400
C306        C  0.46883416  0.07506757  0.08198659     0.13400
C307        C  0.49896407  0.06976889  0.07786279    -0.24200
H308        H  0.46589643  0.08656766  0.03378206     0.14700
H309        H  0.41464623  0.07176103  0.13374065     0.14800
C310        C  0.38142014  0.08569168  0.08709402    -0.24200
H311        H  0.50617241  0.07155976  0.05251072     0.05000
H312        H  0.50362297  0.04925785  0.08193735     0.08200
H313        H  0.01113752  0.07777718  0.09451422     0.08200
H314        H  0.37214600  0.07278264  0.06524012     0.08200
H315        H  0.37550270  0.10661865  0.08734094     0.08200
H316        H  0.37304856  0.07960411  0.10997021     0.05000
C317        C  0.42827225  0.08765595  0.37700740    -0.20800
C318        C  0.45127912  0.07128691  0.37541869    -0.07400
C319        C  0.46127832  0.06372870  0.40484375     0.13500
C320        C  0.44820788  0.07311371  0.43517645    -0.20900
C321        C  0.42530839  0.08996794  0.43714849    -0.07400
C322        C  0.41502616  0.09702349  0.40723098     0.13400
C323        C  0.39013266  0.11416726  0.40624646    -0.24200
H324        H  0.42065784  0.09327934  0.35424232     0.14700
H325        H  0.45645211  0.06755632  0.45763505     0.14800
C326        C  0.48637450  0.04673964  0.40472972    -0.24200
H327        H  0.38446058  0.11605588  0.38038911     0.05000
H328        H  0.39407423  0.13461155  0.41982238     0.08200
H329        H  0.37249235  0.10519366  0.41732622     0.08200
H330        H  0.50379620  0.05632327  0.39399308     0.08200
H331        H  0.48261970  0.02672582  0.38982395     0.08200
H332        H  0.49216046  0.04392674  0.43022348     0.05000
C333        C  0.37943426  0.17691421  0.49862546    -0.20800
C334        C  0.37415839  0.15426101  0.00739325    -0.07400
C335        C  0.35496089  0.16331523  0.03270743     0.13500
C336        C  0.33887191  0.18564638  0.03017364    -0.20900
C337        C  0.33664820  0.19981887  0.51172839    -0.07400
C338        C  0.36325569  0.19946072  0.49874129     0.13400
C339        C  0.37450872  0.22285676  0.48488574    -0.24200
H340        H  0.39967986  0.17626508  0.48790609     0.14700
H341        H  0.32352638  0.19209614  0.04892882     0.14800
C342        C  0.35049649  0.14921392  0.06176115    -0.24200
H343        H  0.39591330  0.21948779  0.47645649     0.05000
H344        H  0.36996123  0.22716570  0.95963310     0.08200
H345        H  0.36221805  0.22635166  0.46323989     0.08200
H346        H  0.36934232  0.15036516  0.07690273     0.08200
H347        H  0.33217403  0.11425939  0.51947942     0.08200
H348        H  0.33389476  0.15846368  0.07829109     0.05000
C349        C  0.41273003  0.09913186  0.52867914     0.79700
N350        N  0.42047833  0.08428221  0.99751138    -0.78600
C351        C  0.41164650  0.09351793  0.97017338     0.82100
N352        N  0.39641413  0.11587497  0.97424656    -0.78600
C353        C  0.38672762  0.13080337  0.50677763     0.82200
N354        N  0.39522912  0.12006032  0.53323105    -0.80300
C355        C  0.11034124  0.48544734  0.94616244     0.79700
N356        N  0.13165286  0.46816130  0.94194685    -0.78600
C357        C  0.14393205  0.46087655  0.96888125     0.82100
N358        N  0.13514485  0.47018037  0.49925300    -0.78600
C359        C  0.11442724  0.48774260  0.50484666     0.82200
N360        N  0.10030847  0.99343050  0.97888406    -0.80300
Zr361      Zr  0.23759735  0.30803741  0.93656360     2.17500
O362        O  0.19401359  0.30216016  0.90780001    -0.51900
O363        O  0.26089214  0.33511446  0.90203988    -0.75100
O364        O  0.21348686  0.35001103  0.94573297    -0.81900
O365        O  0.25891038  0.24039016  0.89229635    -0.83600
O366        O  0.21935554  0.36894248  0.49717159    -0.79200
O367        O  0.23607908  0.27749478  0.88440496    -0.90900
O368        O  0.30367124  0.34287013  0.92193332    -0.76800
O369        O  0.26485982  0.33779283  0.97407202    -0.86300
O370        O  0.28260509  0.29071412  0.93123273    -0.86000
O371        O  0.21707844  0.30840170  0.99001240    -0.72800
O372        O  0.23438288  0.26443928  0.95076211    -0.84900
Zr373      Zr  0.28623060  0.27976902  0.53970261     2.26400
Zr374      Zr  0.24379900  0.33905893  0.52651238     2.06300
Zr375      Zr  0.27981900  0.24775864  0.94665178     2.10000
Zr376      Zr  0.30967348  0.32032423  0.96908762     1.78800
O377        O  0.26348748  0.20193134  0.93737429    -0.93700
O378        O  0.32317598  0.36615949  0.99002885    -0.41500
O379        O  0.30818619  0.27696614  0.98399250    -0.78100
O380        O  0.28954903  0.32291164  0.52395468    -0.96800
O381        O  0.24104872  0.29668321  0.54342865    -0.90100
O382        O  0.25965281  0.24900476  0.50243106    -0.93000
C383        C  0.28462660  0.34556696  0.90134260     1.00800
C384        C  0.24452451  0.25367888  0.87467952     1.13700
C385        C  0.21040995  0.36875272  0.97073239     1.01900
O386        O  0.25870013  0.38491633  0.54386251    -0.95100
O387        O  0.26090955  0.34740145  0.58315994    -0.90900
O388        O  0.28666996  0.31176564  0.59051320    -0.84000
C389        C  0.27648228  0.33487568  0.60043010     1.11100
O390        O  0.17203006  0.25691777  0.97828281    -0.97100
Zr391      Zr  0.21464658  0.26629325  0.50561045     1.88900
O392        O  0.26137898  0.25668894  0.57747496    -0.73800
O393        O  0.20150931  0.34684367  0.55780949    -0.53000
O394        O  0.17791145  0.28553963  0.54216210    -0.97700
O395        O  0.20469196  0.21812344  0.98756075    -0.54900
O396        O  0.21934359  0.24669885  0.55551524    -0.74300
C397        C  0.23755521  0.24644129  0.57797619     0.98100
O398        O  0.33074991  0.28506145  0.56666289    -0.63100
O399        O  0.31658638  0.23696162  0.90644908    -0.57900
O400        O  0.31111363  0.23816428  0.53284652    -0.94600
O401        O  0.31278358  0.22160025  0.97069990    -0.93000
O402        O  0.34536973  0.30244896  0.93020889    -0.93400
O403        O  0.35434985  0.32296512  0.99531908    -0.92100
C404        C  0.32196170  0.22058844  0.99985103     1.16900
H405        H  0.28924907  0.28951470  0.90872930     0.32900
H406        H  0.30089534  0.33450836  0.53953123     0.43700
H407        H  0.25991165  0.23150018  0.50855306     0.37200
H408        H  0.19881078  0.31539502  0.99027331     0.33700
H409        H  0.33893087  0.36945335  0.97611281     0.25500
H410        H  0.20432424  0.33843300  0.57769926     0.31400
H411        H  0.18582963  0.28861527  0.56481853     0.37300
H412        H  0.34705802  0.28357569  0.93288711     0.31800
H413        H  0.31252398  0.21862139  0.89504131     0.30700
H414        H  0.27110514  0.19381405  0.91550643     0.32400
H415        H  0.19382943  0.21413281  0.50827223     0.31300
H416        H  0.35468127  0.31069664  0.50827996     0.35300
H417        H  0.34378994  0.27593519  0.55001280     0.28100
H418        H  0.19382486  0.31550811  0.89281146     0.32300
H419        H  0.17347056  0.26520181  0.95808960     0.35100
H420        H  0.31346461  0.24818375  0.88926447     0.27800
H421        H  0.33532630  0.30415085  0.56800225     0.40600
H422        H  0.27870995  0.38429602  0.54097477     0.30700
H423        H  0.30836882  0.37714629  0.98306160     0.38300
H424        H  0.21214649  0.21357397  0.96473744     0.30200
H425        H  0.20158837  0.36620806  0.56654240     0.30200
H426        H  0.18018783  0.30828578  0.92506430     0.30500
C427        C  0.20663551  0.19551796  0.68904525     0.79700
N428        N  0.21736154  0.20571769  0.71918368    -0.78600
C429        C  0.20994175  0.19634959  0.74703502     0.82100
N430        N  0.19149963  0.17630657  0.74460230    -0.78600
C431        C  0.18080332  0.16561588  0.71465730     0.82200
N432        N  0.18792259  0.17565798  0.68708413    -0.80300
C433        C  0.31359282  0.39226825  0.78615531     0.79700
N434        N  0.30400522  0.38142354  0.75564325    -0.78600
C435        C  0.31554285  0.38738778  0.72763690     0.82100
N436        N  0.33694227  0.40439670  0.73017655    -0.78600
C437        C  0.34686993  0.41548185  0.76039306     0.82200
N438        N  0.33523496  0.40919930  0.78822135    -0.80300
Zr439      Zr  0.02820836  0.06733759  0.69049899     2.17500
O440        O  0.02315235  0.10888287  0.66923430    -0.51900
O441        O  0.05293876  0.04467653  0.64196898    -0.75100
O442        O  0.07034884  0.09275271  0.69875332    -0.81900
O443        O  0.45101979  0.04838133  0.65700591    -0.83600
O444        O  0.09021996  0.08370841  0.74584439    -0.79200
O445        O  0.48965725  0.06978925  0.64583487    -0.90900
O446        O  0.06369049  0.00382870  0.65256485    -0.76800
O447        O  0.05874746  0.03887644  0.71294207    -0.86300
O448        O  0.00894748  0.02395568  0.67808253    -0.86000
O449        O  0.03029454  0.08506974  0.74898946    -0.72800
O450        O  0.48042551  0.07043091  0.71603860    -0.84900
Zr451      Zr  0.99785045  0.01409594  0.78566484     2.26400
Zr452      Zr  0.05994949  0.05544914  0.77137987     2.06300
Zr453      Zr  0.45989039  0.02735180  0.70507716     2.10000
Zr454      Zr  0.03805539  0.49326582  0.70003626     1.78800
O455        O  0.41545801  0.04851401  0.71353964    -0.93700
O456        O  0.08344308  0.47698200  0.70966651    -0.41500
O457        O  0.48912034  0.99653399  0.72602528    -0.78100
O458        O  0.04186257  0.01119650  0.75949938    -0.96800
O459        O  0.01686611  0.05762076  0.79866838    -0.90100
O460        O  0.46406071  0.04305841  0.76338503    -0.93000
C461        C  0.06444337  0.02187030  0.63422669     1.00800
C462        C  0.46500559  0.06230860  0.63960531     1.13700
C463        C  0.08967232  0.09528004  0.72024883     1.04500
O464        O  0.10703697  0.04100425  0.77243795    -0.95100
O465        O  0.06850279  0.03417486  0.81919363    -0.90900
O466        O  0.03103291  0.01055300  0.82908239    -0.84000
C467        C  0.05551670  0.01883805  0.83566086     1.11100
O468        O  0.48351411  0.13018222  0.76035522    -0.97100
Zr469      Zr  0.48483996  0.08569726  0.77472688     1.88900
O470        O  0.47182079  0.03617612  0.83350273    -0.73800
O471        O  0.06747228  0.09366429  0.81517831    -0.53000
O472        O  0.00928544  0.11824583  0.81860243    -0.97700
O473        O  0.43851443  0.10255528  0.77316229    -0.54900
O474        O  0.46324166  0.07854040  0.82595648    -0.74300
C475        C  0.46187288  0.05946353  0.84271418     0.98100
O476        O  0.00147825  0.46955120  0.80015387    -0.63100
O477        O  0.45138898  0.49062939  0.66085387    -0.57900
O478        O  0.45756161  0.48873692  0.77844746    -0.94600
O479        O  0.43267207  0.99603571  0.72935310    -0.93000
O480        O  0.02040897  0.46076730  0.65417895    -0.93400
O481        O  0.03644262  0.44792765  0.71157163    -0.92100
C482        C  0.43938533  0.48404195  0.75560663     1.16900
H483        H  0.00701013  0.01830108  0.65434608     0.32900
H484        H  0.05334938  0.99897198  0.76877393     0.43700
H485        H  0.44643106  0.04320360  0.77390784     0.37200
H486        H  0.03781350  0.10287659  0.75252654     0.33700
H487        H  0.08720432  0.46322927  0.68992699     0.25500
H488        H  0.05820267  0.08901047  0.83498510     0.31400
H489        H  0.99441533  0.12614882  0.83346486     0.37300
H490        H  0.00047951  0.46084723  0.65780834     0.31800
H491        H  0.43242613  0.49493047  0.65556008     0.30700
H492        H  0.40334596  0.03731654  0.69747079     0.32400
H493        H  0.42687412  0.08953344  0.78207501     0.31300
H494        H  0.01744091  0.44542755  0.71857004     0.35300
H495        H  0.51654529  0.46313429  0.79572468     0.28100
H496        H  0.03770209  0.10865987  0.65238701     0.32300
H497        H  0.47596425  0.14186192  0.78016808     0.35100
H498        H  0.46200812  0.49326365  0.64103181     0.27800
H499        H  0.02104571  0.46486987  0.79897671     0.40600
H500        H  0.10684780  0.02239934  0.76045988     0.30700
H501        H  0.09702499  0.99365964  0.70581205     0.38300
H502        H  0.43390421  0.10005357  0.74920044     0.30200
H503        H  0.08711148  0.09295794  0.82036465     0.30200
H504        H  0.02825180  0.12312443  0.68788551     0.30500
C505        C  0.39166375  0.42531798  0.73776672    -0.20800
C506        C  0.37161832  0.43230536  0.76226760    -0.07400
C507        C  0.37540254  0.45535484  0.78673240     0.13500
C508        C  0.39853328  0.47137101  0.78499998    -0.20900
C509        C  0.41763843  0.46495124  0.75936005    -0.07400
C510        C  0.41458894  0.44132666  0.73600254     0.13400
C511        C  0.43567648  0.43279584  0.70942746    -0.24200
H512        H  0.38935868  0.40722314  0.71973578     0.14700
H513        H  0.40119429  0.48952999  0.80291495     0.14800
C514        C  0.35467075  0.46392610  0.81366939    -0.24200
H515        H  0.43047609  0.41332663  0.69392004     0.05000
H516        H  0.45576048  0.43079226  0.72121477     0.08200
H517        H  0.43723775  0.44770960  0.69265475     0.08200
H518        H  0.35326814  0.44888530  0.83030945     0.08200
H519        H  0.33448256  0.46634099  0.80234676     0.08200
H520        H  0.36025270  0.48322126  0.82931756     0.05000
C521        C  0.13905648  0.10512724  0.72531205    -0.20800
C522        C  0.11313888  0.11263988  0.71566451    -0.07400
C523        C  0.11024698  0.13702343  0.70369990     0.13500
C524        C  0.13306554  0.15337255  0.70257262    -0.20900
C525        C  0.15859777  0.14612570  0.71313818    -0.07400
C526        C  0.16185502  0.12150601  0.72398906     0.13400
C527        C  0.18938262  0.11217522  0.73335304    -0.24200
H528        H  0.14148418  0.08632810  0.73402036     0.14700
H529        H  0.13083670  0.17238679  0.69432739     0.14800
C530        C  0.08320680  0.14662436  0.69324787    -0.24200
H531        H  0.18841776  0.09189301  0.73983095     0.05000
H532        H  0.19742407  0.12581776  0.75522802     0.08200
H533        H  0.20366738  0.11164284  0.71213528     0.08200
H534        H  0.06823381  0.14727601  0.71377308     0.08200
H535        H  0.07609752  0.13316793  0.67064573     0.08200
H536        H  0.08459066  0.16694354  0.68694340     0.05000
C537        C  0.21788627  0.20831470  0.60012933    -0.20800
C538        C  0.23036438  0.23343046  0.60643299    -0.07400
C539        C  0.23469456  0.24604149  0.63960114     0.13500
C540        C  0.22640660  0.23316357  0.66560930    -0.20900
C541        C  0.21415833  0.20775030  0.65960437    -0.07400
C542        C  0.20992785  0.19512625  0.62614907     0.13400
C543        C  0.19765716  0.16768566  0.61721434    -0.24200
H544        H  0.21460904  0.19883265  0.57453767     0.14700
H545        H  0.22947220  0.24329961  0.69093946     0.14800
C546        C  0.24715023  0.27347498  0.64783855    -0.24200
H547        H  0.19746277  0.16064398  0.58988587     0.05000
H548        H  0.17622876  0.16787058  0.62587032     0.08200
H549        H  0.20973879  0.15321091  0.62861952     0.08200
H550        H  0.23521821  0.28766055  0.63581077     0.08200
H551        H  0.26852054  0.27306057  0.63895828     0.08200
H552        H  0.24737977  0.28099263  0.67506832     0.05000
C553        C  0.22547253  0.23766742  0.78318208    -0.20800
C554        C  0.21944461  0.21031628  0.77987239    -0.07400
C555        C  0.22215492  0.19752725  0.80788391     0.13500
C556        C  0.23074401  0.21238354  0.83812457    -0.20900
C557        C  0.23623714  0.23973755  0.84153377    -0.07400
C558        C  0.23355014  0.25264330  0.81367748     0.13400
C559        C  0.23956014  0.28192701  0.81552386    -0.24200
H560        H  0.22325485  0.24764346  0.76190686     0.14700
H561        H  0.23264728  0.20258408  0.85960914     0.14800
C562        C  0.21661963  0.16825943  0.80640307    -0.24200
H563        H  0.23802528  0.28809595  0.79074932     0.05000
H564        H  0.26053352  0.28645586  0.82497936     0.08200
H565        H  0.22470588  0.29403247  0.83215682     0.08200
H566        H  0.22922745  0.15651345  0.78656413     0.08200
H567        H  0.19468603  0.16401421  0.80168595     0.08200
H568        H  0.22169488  0.16157010  0.83019896     0.05000
C569        C  0.31344792  0.35076967  0.63865437    -0.20800
C570        C  0.28537161  0.34860829  0.63314462    -0.07400
C571        C  0.26707561  0.35917021  0.65859723     0.13500
C572        C  0.27751799  0.37149504  0.68944662    -0.20900
C573        C  0.30573092  0.37428515  0.69473591    -0.07400
C574        C  0.32394510  0.36372595  0.66893588     0.13400
C575        C  0.35442844  0.36536311  0.67309085    -0.24200
H576        H  0.32729566  0.34260012  0.61879929     0.14700
H577        H  0.26361990  0.37939898  0.70934455     0.14800
C578        C  0.23674077  0.35706253  0.65346341    -0.24200
H579        H  0.36523032  0.35400350  0.65124683     0.05000
H580        H  0.36061003  0.35702417  0.69538474     0.08200
H581        H  0.36111576  0.38638739  0.67550415     0.08200
H582        H  0.23075688  0.33588140  0.64604182     0.08200
H583        H  0.23057205  0.36832574  0.63368719     0.08200
H584        H  0.22543838  0.36535302  0.67649708     0.05000
C585        C  0.27347961  0.35652534  0.84587688    -0.20800
C586        C  0.29053552  0.36070140  0.87397109    -0.07400
C587        C  0.31297672  0.37832655  0.87438396     0.13500
C588        C  0.31877538  0.38932735  0.84594562    -0.20900
C589        C  0.30316554  0.38320735  0.81672699    -0.07400
C590        C  0.27936261  0.36740076  0.81733159     0.13400
C591        C  0.25987126  0.36149576  0.78837860    -0.24200
H592        H  0.25583612  0.34368836  0.84557727     0.14700
H593        H  0.33651827  0.40202088  0.84631001     0.14800
C594        C  0.33116698  0.38587841  0.90434524    -0.24200
H595        H  0.24135477  0.35088929  0.79481452     0.05000
H596        H  0.26966955  0.34839599  0.76713722     0.08200
H597        H  0.25312238  0.38037271  0.78084389     0.08200
H598        H  0.34297268  0.36834129  0.90894811     0.08200
H599        H  0.31870395  0.39392927  0.92649172     0.08200
H600        H  0.34618562  0.40146982  0.90075597     0.05000
C601        C  0.09953906  0.02388868  0.55044040    -0.20800
C602        C  0.10366182  0.99659807  0.53919013    -0.07400
C603        C  0.09742044  0.47682246  0.55891760     0.13500
C604        C  0.08283072  0.98725584  0.58975897    -0.20900
C605        C  0.07857279  0.01458870  0.60151691    -0.07400
C606        C  0.08716861  0.03322866  0.58139110     0.13400
C607        C  0.08369592  0.06283969  0.59204849    -0.24200
H608        H  0.10593018  0.03794745  0.53477279     0.14700
H609        H  0.07595088  0.97263947  0.60435159     0.14800
C610        C  0.10143067  0.44732598  0.54722013    -0.24200
H611        H  0.09280410  0.07420413  0.57381763     0.05000
H612        H  0.09384213  0.06944162  0.61639091     0.08200
H613        H  0.06175957  0.06790535  0.59400900     0.08200
H614        H  0.12341428  0.44273066  0.54384498     0.08200
H615        H  0.09049545  0.44093612  0.52335429     0.08200
H616        H  0.09344896  0.43532844  0.56544353     0.05000
C617        C  0.11030347  0.99797239  0.89262358    -0.20800
C618        C  0.09630721  0.49298223  0.91709790    -0.07400
C619        C  0.06578197  0.99433074  0.91747337     0.13500
C620        C  0.05386943  0.00308395  0.89004140    -0.20900
C621        C  0.06970800  0.00985100  0.86401611    -0.07400
C622        C  0.09844898  0.00692077  0.86526112     0.13400
C623        C  0.11696164  0.01233310  0.83767198    -0.24200
H624        H  0.13335156  0.49101462  0.88857165     0.14700
H625        H  0.03193755  0.00476320  0.88905332     0.14800
C626        C  0.04935984  0.49318340  0.94499732    -0.24200
H627        H  0.13843976  0.00709074  0.84199369     0.05000
H628        H  0.11661614  0.03384353  0.83610975     0.08200
H629        H  0.10826289  0.49225172  0.80850360     0.08200
H630        H  0.05050544  0.00052536  0.96790151     0.08200
H631        H  0.05224350  0.47271129  0.95029822     0.08200
H632        H  0.02559452  0.98775855  0.93739166     0.05000
C633        C  0.15867418  0.41607989  0.94251316    -0.20800
C634        C  0.16426519  0.43942686  0.96502490    -0.07400
C635        C  0.18682207  0.44027783  0.98662158     0.13500
C636        C  0.20206210  0.41712612  0.98672103    -0.20900
C637        C  0.19527386  0.39302587  0.96601651    -0.07400
C638        C  0.17373979  0.39278090  0.94276483     0.13400
C639        C  0.16538547  0.36798276  0.91928884    -0.24200
H640        H  0.14132748  0.41560059  0.92600041     0.14700
H641        H  0.21905855  0.41773684  0.00376983     0.14800
C642        C  0.19502811  0.46550884  0.00955006    -0.24200
H643        H  0.14729899  0.37137774  0.90424484     0.05000
H644        H  0.16006977  0.35206381  0.93364437     0.08200
H645        H  0.18220007  0.36148840  0.90162611     0.08200
H646        H  0.17934787  0.47126755  0.02899478     0.08200
H647        H  0.19780893  0.48183028  0.99497129     0.08200
H648        H  0.21448888  0.46303311  0.02251174     0.05000
C649        C  0.45167833  0.07920982  0.55388021    -0.20800
C650        C  0.42491927  0.08902419  0.55743315    -0.07400
C651        C  0.41116599  0.08911619  0.58802936     0.13500
C652        C  0.42461998  0.07965406  0.61403064    -0.20900
C653        C  0.45162822  0.07073789  0.61067843    -0.07400
C654        C  0.46527329  0.07030566  0.58004519     0.13400
C655        C  0.49398766  0.06009449  0.57439151    -0.24200
H656        H  0.46242683  0.07908175  0.53063099     0.14700
H657        H  0.41421227  0.07989563  0.63753865     0.14800
C658        C  0.38235906  0.09883623  0.59366113    -0.24200
H659        H  0.50063817  0.05944915  0.54822103     0.05000
H660        H  0.49542949  0.03959665  0.58006697     0.08200
H661        H  0.01321471  0.08214517  0.59627357     0.08200
H662        H  0.36890659  0.08808819  0.57392958     0.08200
H663        H  0.38164454  0.12058380  0.59370487     0.08200
H664        H  0.37431361  0.09546296  0.61806704     0.05000
C665        C  0.42178539  0.07601464  0.87632500    -0.20800
C666        C  0.44790917  0.06497193  0.87500218    -0.07400
C667        C  0.46081267  0.06094475  0.90459452     0.13500
C668        C  0.44784288  0.06947017  0.93508733    -0.20900
C669        C  0.42222327  0.08187778  0.93680510    -0.07400
C670        C  0.40856558  0.08431365  0.90681041     0.13400
C671        C  0.38007493  0.09522696  0.90634865    -0.24200
H672        H  0.41185616  0.07849566  0.85331351     0.14700
H673        H  0.45839007  0.06733337  0.95780374     0.14800
C674        C  0.48871790  0.04871375  0.90428597    -0.24200
H675        H  0.37187748  0.09294406  0.88063212     0.05000
H676        H  0.37986352  0.11680844  0.91670431     0.08200
H677        H  0.36627602  0.08433243  0.92094584     0.08200
H678        H  0.50345477  0.06038916  0.89190540     0.08200
H679        H  0.48786897  0.02792534  0.89072144     0.08200
H680        H  0.49628538  0.04815798  0.92981960     0.05000
C681        C  0.37786763  0.16896206  0.98153244    -0.20800
C682        C  0.36966316  0.15485229  0.51141434    -0.07400
C683        C  0.34341615  0.15568197  0.52579891     0.13500
C684        C  0.32717649  0.17836455  0.52594567    -0.20900
C685        C  0.34134156  0.19902380  0.00296123    -0.07400
C686        C  0.36172126  0.19102627  0.97881633     0.13400
C687        C  0.36686125  0.20561316  0.95016001    -0.24200
H688        H  0.39317721  0.16275660  0.96265034     0.14700
H689        H  0.30663540  0.17888691  0.53577633     0.14800
C690        C  0.33191259  0.13223744  0.53917572    -0.24200
H691        H  0.38527771  0.19808513  0.93576060     0.05000
H692        H  0.37397049  0.24095764  0.50439484     0.08200
H693        H  0.34945979  0.20272852  0.93264434     0.08200
H694        H  0.34416948  0.12855503  0.56065043     0.08200
H695        H  0.34482962  0.12812949  0.05265895     0.08200
H696        H  0.31058501  0.13579773  0.54783455     0.05000
C697        C  0.41631231  0.59754036  0.02951953     0.79700
N698        N  0.42410602  0.58635166  0.49784040    -0.78600
C699        C  0.41635060  0.59698241  0.47106630     0.82100
N700        N  0.39981965  0.61840262  0.47591851    -0.78600
C701        C  0.39165526  0.62982931  0.00689952     0.82200
N702        N  0.39962399  0.61919228  0.03378925    -0.80300
C703        C  0.11081057  0.98540207  0.44772363     0.79700
N704        N  0.13066606  0.96648543  0.44275263    -0.78600
C705        C  0.14284809  0.95843924  0.46931131     0.82100
N706        N  0.13254422  0.96713148  0.00002030    -0.78600
C707        C  0.11215731  0.98512481  0.00523801     0.82200
N708        N  0.10202453  0.49598975  0.47879340    -0.80300
Zr709      Zr  0.23823980  0.80483920  0.43404062     2.17500
O710        O  0.19492642  0.79873562  0.40467155    -0.51900
O711        O  0.26112859  0.83201128  0.39946391    -0.75100
O712        O  0.21298559  0.84657037  0.44319901    -0.81900
O713        O  0.26353407  0.73722459  0.38931996    -0.83600
O714        O  0.21614192  0.86343124  0.99750167    -0.79200
O715        O  0.23766178  0.77282794  0.38244085    -0.90900
O716        O  0.30297271  0.84310937  0.42095123    -0.76800
O717        O  0.26438561  0.83554848  0.47189284    -0.86300
O718        O  0.28396132  0.78920031  0.42916389    -0.86000
O719        O  0.21783521  0.80467955  0.48753553    -0.72800
O720        O  0.23696589  0.76114434  0.44820556    -0.84900
Zr721      Zr  0.28639137  0.77516344  0.03708656     2.26400
Zr722      Zr  0.24179471  0.83354675  0.02593003     2.06300
Zr723      Zr  0.28307213  0.74612910  0.44462759     2.10000
Zr724      Zr  0.30986513  0.81982803  0.46732664     1.78800
O725        O  0.26767474  0.70002203  0.43272884    -0.93700
O726        O  0.32157208  0.86569572  0.49063709    -0.41500
O727        O  0.31007665  0.77645298  0.48251128    -0.78100
O728        O  0.28829527  0.81911141  0.02345397    -0.96800
O729        O  0.24053051  0.79035549  0.04072412    -0.90100
O730        O  0.26086520  0.74444147  0.99833880    -0.93000
C731        C  0.28409822  0.84403720  0.39952052     1.00800
C732        C  0.24781331  0.74966994  0.37211945     1.13700
C733        C  0.20950480  0.86524028  0.46831485     1.01900
O734        O  0.25091932  0.88042591  0.04648998    -0.95100
O735        O  0.26052953  0.84236471  0.08171907    -0.90900
O736        O  0.28664284  0.80695304  0.08875826    -0.84000
C737        C  0.27631424  0.83003577  0.09894799     1.11100
O738        O  0.17413414  0.75705769  0.47494745    -0.97100
Zr739      Zr  0.21526538  0.76016294  0.00129925     1.88900
O740        O  0.26152721  0.75090311  0.07349644    -0.73800
O741        O  0.20027388  0.83663207  0.05904230    -0.53000
O742        O  0.17574251  0.77749958  0.03406130    -0.97700
O743        O  0.20762610  0.71445199  0.48184437    -0.54900
O744        O  0.21912403  0.74249143  0.05248082    -0.74300
C745        C  0.23750771  0.74124748  0.07447958     0.98100
O746        O  0.33059257  0.77744592  0.06500972    -0.63100
O747        O  0.32242847  0.73804666  0.40784696    -0.57900
O748        O  0.31268628  0.73426598  0.02741428    -0.94600
O749        O  0.31471319  0.71980767  0.47078411    -0.93000
O750        O  0.34563020  0.80372475  0.42759413    -0.93400
O751        O  0.35513408  0.82433011  0.49197718    -0.92100
C752        C  0.32250182  0.71885263  0.50057106     1.16900
H753        H  0.29069883  0.78820162  0.40672194     0.32900
H754        H  0.29938278  0.83075450  0.03928781     0.43700
H755        H  0.26179480  0.72673750  0.00375712     0.37200
H756        H  0.19933486  0.81106505  0.48768751     0.33700
H757        H  0.33385743  0.87155883  0.47403367     0.25500
H758        H  0.20384025  0.82562022  0.07635958     0.31400
H759        H  0.16677271  0.76162889  0.04026089     0.37300
H760        H  0.35033359  0.78589399  0.43242235     0.31800
H761        H  0.32136047  0.71886943  0.39823536     0.30700
H762        H  0.27827029  0.69183333  0.41295471     0.32400
H763        H  0.21874442  0.70365046  0.99957380     0.31300
H764        H  0.35314679  0.80880811  0.00888893     0.35300
H765        H  0.34409853  0.77187767  0.04714251     0.28100
H766        H  0.19481764  0.81216722  0.38978509     0.32300
H767        H  0.16343831  0.74475261  0.48628528     0.35100
H768        H  0.31836636  0.74729065  0.38896108     0.27800
H769        H  0.33450725  0.79663823  0.07205335     0.40600
H770        H  0.26769298  0.88431767  0.03472854     0.30700
H771        H  0.30457413  0.87582366  0.48917090     0.38300
H772        H  0.21158302  0.71190228  0.45769553     0.30200
H773        H  0.20025084  0.85515988  0.07132875     0.30200
H774        H  0.18091708  0.80474647  0.42175188     0.30500
C775        C  0.20441714  0.69386382  0.18709419     0.79700
N776        N  0.21628059  0.70352049  0.21667168    -0.78600
C777        C  0.20895413  0.69434217  0.24473114     0.82100
N778        N  0.18954959  0.67504214  0.24277870    -0.78600
C779        C  0.17779398  0.66494576  0.21307230     0.82200
N780        N  0.18501246  0.67470608  0.18536231    -0.80300
C781        C  0.31283082  0.88982697  0.28364473     0.79700
N782        N  0.30297208  0.87982590  0.25303475    -0.78600
C783        C  0.31421270  0.88632141  0.22524662     0.82100
N784        N  0.33555304  0.90341784  0.22800135    -0.78600
C785        C  0.34544048  0.91416327  0.25842797     0.82200
N786        N  0.33423861  0.90707850  0.28613054    -0.80300
Zr787      Zr  0.02583805  0.56305687  0.18790608     2.17500
O788        O  0.02117844  0.60296941  0.16303222    -0.51900
O789        O  0.05049078  0.53924291  0.14071460    -0.75100
O790        O  0.06780362  0.58944726  0.19499088    -0.81900
O791        O  0.45609171  0.54657283  0.15788529    -0.83600
O792        O  0.08880563  0.58034515  0.24129026    -0.79200
O793        O  0.49361137  0.56998398  0.14794067    -0.90900
O794        O  0.05574483  0.49640938  0.14728921    -0.76800
O795        O  0.05616148  0.53361853  0.20886877    -0.86300
O796        O  0.00524348  0.52008483  0.17726828    -0.86000
O797        O  0.02985314  0.58139297  0.24593175    -0.72800
O798        O  0.48607040  0.56941585  0.21552968    -0.84900
Zr799      Zr  0.99728549  0.51252793  0.28635609     2.26400
Zr800      Zr  0.05978723  0.55107390  0.26681783     2.06300
Zr801      Zr  0.46687376  0.52559658  0.20580400     2.10000
Zr802      Zr  0.03827243  0.99480703  0.20312065     1.78800
O803        O  0.42076653  0.54301868  0.21331099    -0.93700
O804        O  0.08455037  0.97951055  0.20990221    -0.41500
O805        O  0.49703346  0.49630242  0.22835897    -0.78100
O806        O  0.04009940  0.50742702  0.25755688    -0.96800
O807        O  0.01762782  0.55550802  0.29646613    -0.90100
O808        O  0.47016245  0.54299128  0.26396786    -0.93000
C809        C  0.05908044  0.51551616  0.13090292     1.00800
C810        C  0.46929466  0.56164118  0.14110779     1.13700
C811        C  0.08757370  0.59219727  0.21597213     1.04500
O812        O  0.10468431  0.53076265  0.25989047    -0.95100
O813        O  0.06963012  0.53169337  0.31555239    -0.90900
O814        O  0.03170430  0.51017045  0.32863505    -0.84000
C815        C  0.05655142  0.51777196  0.33368220     1.11100
O816        O  0.48639351  0.63104473  0.26100079    -0.97100
Zr817      Zr  0.49006997  0.58619955  0.27382707     1.88900
O818        O  0.47761007  0.53861219  0.33489953    -0.73800
O819        O  0.07417132  0.58762149  0.30987834    -0.53000
O820        O  0.00983279  0.61698073  0.31628410    -0.97700
O821        O  0.44307998  0.60079741  0.27042872    -0.54900
O822        O  0.47023181  0.58090087  0.32640834    -0.74300
C823        C  0.46849550  0.56231687  0.34383973     0.98100
O824        O  0.99557296  0.97355571  0.30877827    -0.63100
O825        O  0.45016734  0.99070947  0.15988192    -0.57900
O826        O  0.45435997  0.98946465  0.27791242    -0.94600
O827        O  0.44070033  0.49344001  0.23013278    -0.93000
O828        O  0.01766540  0.96123383  0.16070607    -0.93400
O829        O  0.03949201  0.95007159  0.21657919    -0.92100
C830        C  0.43653240  0.98457306  0.25466722     1.16900
H831        H  0.00242005  0.51416653  0.15371705     0.32900
H832        H  0.05154121  0.49512509  0.26676606     0.43700
H833        H  0.45249615  0.54297357  0.27438900     0.37200
H834        H  0.03773437  0.59903339  0.24891689     0.33700
H835        H  0.08843083  0.96699627  0.18905321     0.25500
H836        H  0.06400138  0.58502614  0.33005676     0.31400
H837        H  0.01445425  0.60726314  0.33457137     0.37300
H838        H  0.99902074  0.95887475  0.16900012     0.31800
H839        H  0.43052087  0.99353809  0.15643390     0.30700
H840        H  0.40969217  0.53086807  0.19699062     0.32400
H841        H  0.43198135  0.58769396  0.27993131     0.31300
H842        H  0.03723496  0.95270030  0.24105314     0.35300
H843        H  0.51235622  0.96493021  0.30144011     0.28100
H844        H  0.03619804  0.60212031  0.14669119     0.32300
H845        H  0.47862301  0.64200730  0.28123112     0.35100
H846        H  0.45900705  0.99479950  0.13952013     0.27800
H847        H  0.99472812  0.97818553  0.33335490     0.40600
H848        H  0.10114143  0.51135818  0.25637028     0.30700
H849        H  0.09296996  0.48858292  0.19596123     0.38300
H850        H  0.43878567  0.59723689  0.24635527     0.30200
H851        H  0.09329147  0.58344505  0.31462044     0.30200
H852        H  0.02569519  0.61801847  0.18094123     0.30500
C853        C  0.39092321  0.92411278  0.23793802    -0.20800
C854        C  0.36967900  0.93159327  0.26063270    -0.07400
C855        C  0.37157966  0.95587446  0.28332243     0.13500
C856        C  0.39427122  0.97249101  0.28179629    -0.20900
C857        C  0.41482899  0.96535939  0.25812214    -0.07400
C858        C  0.41349678  0.94066753  0.23645733     0.13400
C859        C  0.43599039  0.93168867  0.21193872    -0.24200
H860        H  0.38976070  0.90524949  0.22107252     0.14700
H861        H  0.39555164  0.99151987  0.29833993     0.14800
C862        C  0.34926157  0.96496890  0.30799274    -0.24200
H863        H  0.43199695  0.91151305  0.19751095     0.05000
H864        H  0.45552381  0.93103497  0.22545443     0.08200
H865        H  0.43798225  0.94568007  0.19401104     0.08200
H866        H  0.34738146  0.95099523  0.32595555     0.08200
H867        H  0.32965140  0.96584744  0.29471271     0.08200
H868        H  0.35348405  0.98508056  0.32245713     0.05000
C869        C  0.13660060  0.60362986  0.22267556    -0.20800
C870        C  0.11079752  0.61013044  0.21147540    -0.07400
C871        C  0.10790369  0.63405362  0.19839588     0.13500
C872        C  0.13035025  0.65124902  0.19865275    -0.20900
C873        C  0.15561909  0.64515627  0.21133965    -0.07400
C874        C  0.15907090  0.62057959  0.22223782     0.13400
C875        C  0.18658695  0.61164095  0.23215614    -0.24200
H876        H  0.13926546  0.58504243  0.23181617     0.14700
H877        H  0.12802021  0.66992603  0.18960876     0.14800
C878        C  0.08125534  0.64219045  0.18508731    -0.24200
H879        H  0.18585890  0.59126515  0.23836389     0.05000
H880        H  0.19406450  0.62521653  0.25434225     0.08200
H881        H  0.20118955  0.61151436  0.21132983     0.08200
H882        H  0.06532317  0.64333389  0.20458553     0.08200
H883        H  0.07544016  0.62758581  0.16282991     0.08200
H884        H  0.08258458  0.66200509  0.17730942     0.05000
C885        C  0.20203818  0.72716376  0.11108376    -0.20800
C886        C  0.22987488  0.72838582  0.10321668    -0.07400
C887        C  0.24921765  0.71748229  0.12297189     0.13500
C888        C  0.24009156  0.70604341  0.14992370    -0.20900
C889        C  0.21234349  0.70484248  0.15742237    -0.07400
C890        C  0.19304298  0.71556275  0.13787751     0.13400
C891        C  0.16307243  0.71585437  0.14595548    -0.24200
H892        H  0.18710281  0.73574871  0.09650817     0.14700
H893        H  0.25472639  0.69786643  0.16530752     0.14800
C894        C  0.27937351  0.71718586  0.11580251    -0.24200
H895        H  0.15107564  0.72632828  0.12908134     0.05000
H896        H  0.15969483  0.72625923  0.17186447     0.08200
H897        H  0.15520908  0.69517452  0.14321575     0.08200
H898        H  0.28747505  0.73782651  0.11961768     0.08200
H899        H  0.28324985  0.70713393  0.08985196     0.08200
H900        H  0.29091975  0.70627051  0.13261192     0.05000
C901        C  0.22778063  0.73447136  0.28073433    -0.20800
C902        C  0.22030880  0.70745226  0.27727087    -0.07400
C903        C  0.22397625  0.69410275  0.30467931     0.13500
C904        C  0.23380130  0.70833372  0.33487567    -0.20900
C905        C  0.23984279  0.73561441  0.33869841    -0.07400
C906        C  0.23745846  0.74869611  0.31098689     0.13400
C907        C  0.24574365  0.77738590  0.31274256    -0.24200
H908        H  0.22549248  0.74481632  0.25979347     0.14700
H909        H  0.23603464  0.69820960  0.35603441     0.14800
C910        C  0.21812956  0.66486795  0.30245597    -0.24200
H911        H  0.24446281  0.78361674  0.28800720     0.05000
H912        H  0.26711697  0.78018288  0.32151458     0.08200
H913        H  0.23209726  0.79058501  0.32986189     0.08200
H914        H  0.22966610  0.65337374  0.28135817     0.08200
H915        H  0.19596566  0.66119474  0.29921267     0.08200
H916        H  0.22428271  0.65746677  0.32543141     0.05000
C917        C  0.31290448  0.84467526  0.13901880    -0.20800
C918        C  0.28498867  0.84416009  0.13185208    -0.07400
C919        C  0.26659592  0.85775351  0.15547977     0.13500
C920        C  0.27674080  0.87154296  0.18579085    -0.20900
C921        C  0.30479143  0.87268369  0.19245055    -0.07400
C922        C  0.32309521  0.85893065  0.16886343     0.13400
C923        C  0.35329139  0.85850068  0.17530980    -0.24200
H924        H  0.32693850  0.83428912  0.12077672     0.14700
H925        H  0.26276221  0.88167279  0.20430976     0.14800
C926        C  0.23634200  0.85716302  0.14928542    -0.24200
H927        H  0.36423103  0.84530748  0.15505836     0.05000
H928        H  0.35722832  0.85108641  0.19892889     0.08200
H929        H  0.36183751  0.87882509  0.17681841     0.08200
H930        H  0.22909782  0.83621698  0.14373954     0.08200
H931        H  0.23154603  0.86733519  0.12802920     0.08200
H932        H  0.22493260  0.86749585  0.17126574     0.05000
C933        C  0.27722460  0.84848746  0.34095060    -0.20800
C934        C  0.28951412  0.85842871  0.37154631    -0.07400
C935        C  0.30710706  0.88068251  0.37385944     0.13500
C936        C  0.31309717  0.89120617  0.34503270    -0.20900
C937        C  0.30239058  0.87994258  0.31371885    -0.07400
C938        C  0.28342628  0.85857131  0.31202697     0.13400
C939        C  0.26987867  0.84533346  0.28018979    -0.24200
H940        H  0.26340117  0.83174110  0.33927098     0.14700
H941        H  0.32697112  0.90794719  0.34699181     0.14800
C942        C  0.31951157  0.89369465  0.40643727    -0.24200
H943        H  0.25521043  0.82967427  0.28444209     0.05000
H944        H  0.28536333  0.83549172  0.26240588     0.08200
H945        H  0.25817140  0.86023039  0.26910014     0.08200
H946        H  0.33428205  0.88001354  0.41521019     0.08200
H947        H  0.30327407  0.89909111  0.42533582     0.08200
H948        H  0.33074699  0.91219240  0.40395003     0.05000
C949        C  0.09640885  0.52126264  0.04994435    -0.20800
C950        C  0.10038161  0.49436683  0.03687596    -0.07400
C951        C  0.09571812  0.97565465  0.06051721     0.13500
C952        C  0.07744105  0.48227862  0.08466578    -0.20900
C953        C  0.07349018  0.50929990  0.09838207    -0.07400
C954        C  0.08340001  0.52914120  0.08067710     0.13400
C955        C  0.08097826  0.55859492  0.09371285    -0.24200
H956        H  0.10374271  0.53618289  0.03603284     0.14700
H957        H  0.06982854  0.46686261  0.09756754     0.14800
C958        C  0.10144221  0.94623725  0.05087037    -0.24200
H959        H  0.09108185  0.57075282  0.07705784     0.05000
H960        H  0.09083943  0.56352388  0.11850426     0.08200
H961        H  0.05925910  0.56452650  0.09544717     0.08200
H962        H  0.12369542  0.94280519  0.04835548     0.08200
H963        H  0.09113753  0.93824421  0.02701180     0.08200
H964        H  0.09396971  0.93474688  0.06989582     0.05000
C965        C  0.11140463  0.49806156  0.39098314    -0.20800
C966        C  0.09684703  0.99391860  0.41928437    -0.07400
C967        C  0.06728894  0.49834663  0.41814626     0.13500
C968        C  0.05531315  0.50583405  0.39001548    -0.20900
C969        C  0.07091513  0.50992745  0.36247762    -0.07400
C970        C  0.09946393  0.50570713  0.36289989     0.13400
C971        C  0.11757726  0.50821569  0.33370182    -0.24200
H972        H  0.13442392  0.99668373  0.39315131     0.14700
H973        H  0.03349926  0.50861390  0.38962984     0.14800
C974        C  0.04999190  0.99008409  0.44562531    -0.24200
H975        H  0.13889560  0.50235283  0.33786128     0.05000
H976        H  0.11812569  0.52918116  0.32963277     0.08200
H977        H  0.11154791  0.00108202  0.31343091     0.08200
H978        H  0.05335750  0.50853209  0.46896518     0.08200
H979        H  0.05398192  0.96936243  0.44936473     0.08200
H980        H  0.02718207  0.49554375  0.44032703     0.05000
C981        C  0.15699195  0.91312465  0.44195483    -0.20800
C982        C  0.16271528  0.93629467  0.46491689    -0.07400
C983        C  0.18570367  0.93676558  0.48583014     0.13500
C984        C  0.20108281  0.91356166  0.48497199    -0.20900
C985        C  0.19416861  0.88962685  0.46399351    -0.07400
C986        C  0.17230687  0.88970767  0.44128281     0.13400
C987        C  0.16399573  0.86507644  0.41747361    -0.24200
H988        H  0.13949678  0.91288784  0.42572957     0.14700
H989        H  0.21836424  0.91399964  0.50156755     0.14800
C990        C  0.19436909  0.96169481  0.50903698    -0.24200
H991        H  0.14581594  0.86860783  0.40266769     0.05000
H992        H  0.15890166  0.84889923  0.43152643     0.08200
H993        H  0.18078250  0.85877268  0.39967987     0.08200
H994        H  0.17924050  0.96703151  0.52924563     0.08200
H995        H  0.19660388  0.97836049  0.49490372     0.08200
H996        H  0.21421760  0.95904135  0.52105840     0.05000
C997        C  0.45703670  0.58548368  0.05850963    -0.20800
C998        C  0.42868617  0.58799831  0.05838583    -0.07400
C999        C  0.41341472  0.58063115  0.08473220     0.13500
C1000       C  0.42709337  0.57189935  0.11124893    -0.20900
C1001       C  0.45571656  0.57021663  0.11197271    -0.07400
C1002       C  0.47078326  0.57665002  0.08461756     0.13400
C1003       C  0.50130365  0.57364275  0.08176705    -0.24200
H1004       H  0.46864517  0.59075574  0.03794406     0.14700
H1005       H  0.41533439  0.56659257  0.13165145     0.14800
C1006       C  0.38279877  0.58103941  0.08439447    -0.24200
H1007       H  0.50895392  0.57701157  0.05718270     0.05000
H1008       H  0.50732747  0.55318403  0.08469924     0.08200
H1009       H  0.00971123  0.57054918  0.09093544     0.08200
H1010       H  0.37513131  0.56860785  0.06118520     0.08200
H1011       H  0.37558069  0.60172814  0.08579560     0.08200
H1012       H  0.37404315  0.57315780  0.10588576     0.05000
C1013       C  0.43105906  0.58471482  0.37763455    -0.20800
C1014       C  0.45457055  0.56907940  0.37621088    -0.07400
C1015       C  0.46499989  0.56197519  0.40570804     0.13500
C1016       C  0.45160281  0.57085328  0.43592290    -0.20900
C1017       C  0.42821897  0.58699972  0.43766091    -0.07400
C1018       C  0.41770878  0.59384902  0.40775692     0.13400
C1019       C  0.39252975  0.61062093  0.40667272    -0.24200
H1020       H  0.42320877  0.59007665  0.35483086     0.14700
H1021       H  0.46005202  0.56566878  0.45849040     0.14800
C1022       C  0.49090220  0.54617448  0.40584615    -0.24200
H1023       H  0.38665647  0.61217704  0.38077717     0.05000
H1024       H  0.39624821  0.63122711  0.41986674     0.08200
H1025       H  0.37509562  0.60157024  0.41805114     0.08200
H1026       H  0.50782604  0.55653063  0.39521344     0.08200
H1027       H  0.48811343  0.52598696  0.39098894     0.08200
H1028       H  0.49685920  0.54369969  0.43141180     0.05000
C1029       C  0.38318336  0.67321357  0.49249482    -0.20800
C1030       C  0.37509201  0.65439477  0.01009563    -0.07400
C1031       C  0.35109707  0.65842117  0.02947546     0.13500
C1032       C  0.33436700  0.68032472  0.02695219    -0.20900
C1033       C  0.34110516  0.69735436  0.50496869    -0.07400
C1034       C  0.36684047  0.69505906  0.48950492     0.13400
C1035       C  0.37710214  0.71558850  0.46985530    -0.24200
H1036       H  0.40280588  0.67111996  0.48012722     0.14700
H1037       H  0.31552121  0.68309091  0.04095607     0.14800
C1038       C  0.34246285  0.63931786  0.05182015    -0.24200
H1039       H  0.39814332  0.71115810  0.46057814     0.05000
H1040       H  0.37535503  0.73496266  0.98091957     0.08200
H1041       H  0.36384435  0.71600436  0.44794719     0.08200
H1042       H  0.35757309  0.63991197  0.07207681     0.08200
H1043       H  0.33760571  0.61537375  0.52781653     0.08200
H1044       H  0.32236485  0.64469980  0.06353868     0.05000
C1045       C  0.41543143  0.59673863  0.52901993     0.79700
N1046       N  0.42508413  0.58694077  0.99843094    -0.78600
C1047       C  0.41704971  0.59725848  0.97146472     0.82100
N1048       N  0.40069363  0.61887430  0.97618499    -0.78600
C1049       C  0.39057579  0.62892935  0.50661287     0.82200
N1050       N  0.39863523  0.61828471  0.53338312    -0.80300
C1051       C  0.10837599  0.98346458  0.94740793     0.79700
N1052       N  0.12887831  0.96524120  0.94237138    -0.78600
C1053       C  0.14126703  0.95730120  0.96885524     0.82100
N1054       N  0.13447914  0.96887025  0.50049896    -0.78600
C1055       C  0.11479572  0.98766015  0.50559762     0.82200
N1056       N  0.10136170  0.49505641  0.97732806    -0.80300
Zr1057     Zr  0.23686660  0.80442348  0.93399014     2.17500
O1058       O  0.19462186  0.79845047  0.90234129    -0.51900
O1059       O  0.26067004  0.83181090  0.90029646    -0.75100
O1060       O  0.21146626  0.84591768  0.94274513    -0.81900
O1061       O  0.26076831  0.73663883  0.89024908    -0.83600
O1062       O  0.21888006  0.86464263  0.49759183    -0.79200
O1063       O  0.23682858  0.77305217  0.88199470    -0.90900
O1064       O  0.30220631  0.84173370  0.92277559    -0.76800
O1065       O  0.26212095  0.83497305  0.97310015    -0.86300
O1066       O  0.28257434  0.78874219  0.93049120    -0.86000
O1067       O  0.21515818  0.80383496  0.98674067    -0.72800
O1068       O  0.23490476  0.76060601  0.94774554    -0.84900
Zr1069     Zr  0.28989385  0.77637849  0.53610401     2.26400
Zr1070     Zr  0.24512883  0.83473645  0.52544811     2.06300
Zr1071     Zr  0.28090470  0.74544828  0.94532192     2.10000
Zr1072     Zr  0.30760152  0.81931279  0.96986518     1.78800
O1073       O  0.26572608  0.69924710  0.93505674    -0.93700
O1074       O  0.31635217  0.86597181  0.99262495    -0.41500
O1075       O  0.30733588  0.77565547  0.98404218    -0.78100
O1076       O  0.29153082  0.82008926  0.52173030    -0.96800
O1077       O  0.24419755  0.79169170  0.54070097    -0.90100
O1078       O  0.26391046  0.74548941  0.49820681    -0.93000
C1079       C  0.28395141  0.84333145  0.90088965     1.00800
C1080       C  0.24605186  0.74944757  0.87234007     1.13700
C1081       C  0.20746495  0.86429293  0.96800420     1.01900
O1082       O  0.25755371  0.88110208  0.54458191    -0.95100
O1083       O  0.26215702  0.84235451  0.58218851    -0.90900
O1084       O  0.29030241  0.80797181  0.58774076    -0.84000
C1085       C  0.27874378  0.83029299  0.59878758     1.11100
O1086       O  0.17336000  0.75196770  0.96907317    -0.97100
Zr1087     Zr  0.21835963  0.76112625  0.50240386     1.88900
O1088       O  0.26565368  0.75224840  0.57346239    -0.73800
O1089       O  0.20324248  0.83913149  0.55784856    -0.53000
O1090       O  0.18170824  0.77727694  0.54087415    -0.97700
O1091       O  0.20678424  0.71247669  0.98526467    -0.54900
O1092       O  0.22437519  0.73994265  0.55070444    -0.74300
C1093       C  0.24243160  0.74068120  0.57352285     0.98100
O1094       O  0.33466051  0.78006052  0.56262379    -0.63100
O1095       O  0.31894340  0.73566173  0.90678910    -0.57900
O1096       O  0.31528986  0.73511310  0.52666231    -0.94600
O1097       O  0.31423927  0.72065067  0.97131522    -0.93000
O1098       O  0.34656348  0.80517292  0.93426432    -0.93400
O1099       O  0.35134731  0.82479515  0.99827785    -0.92100
C1100       C  0.32145132  0.71910388  0.00115537     1.16900
H1101       H  0.28968203  0.78787518  0.90825026     0.32900
H1102       H  0.30270882  0.83177905  0.53741249     0.43700
H1103       H  0.26487823  0.72780527  0.50368621     0.37200
H1104       H  0.19668236  0.81021588  0.98635333     0.33700
H1105       H  0.33251561  0.87076148  0.98036685     0.25500
H1106       H  0.20633118  0.82837352  0.57554478     0.31400
H1107       H  0.18985723  0.77921934  0.56336038     0.37300
H1108       H  0.33873121  0.79760343  0.91231870     0.31800
H1109       H  0.31459995  0.71799015  0.89356275     0.30700
H1110       H  0.28187911  0.68890692  0.92593202     0.32400
H1111       H  0.22192085  0.70415197  0.49106054     0.31300
H1112       H  0.35718274  0.80849333  0.50282874     0.35300
H1113       H  0.34771228  0.77310890  0.54472949     0.28100
H1114       H  0.19504966  0.81213028  0.88779958     0.32300
H1115       H  0.16274081  0.73909113  0.97957425     0.35100
H1116       H  0.31703895  0.74817413  0.89086340     0.27800
H1117       H  0.33871167  0.79937951  0.56737765     0.40600
H1118       H  0.27760818  0.88097096  0.54690617     0.30700
H1119       H  0.30119031  0.87581679  0.98436110     0.38300
H1120       H  0.21471008  0.70778598  0.96270317     0.30200
H1121       H  0.20345879  0.85778645  0.56970215     0.30200
H1122       H  0.18001751  0.80414318  0.91873325     0.30500
C1123       C  0.20920889  0.69152223  0.68534388     0.79700
N1124       N  0.21988499  0.70152542  0.71563796    -0.78600
C1125       C  0.21170962  0.69255681  0.74353522     0.82100
N1126       N  0.19247533  0.67315777  0.74091681    -0.78600
C1127       C  0.18171957  0.66278245  0.71082690     0.82200
N1128       N  0.18972432  0.67236593  0.68326556    -0.80300
C1129       C  0.31157820  0.89054432  0.78592439     0.79700
N1130       N  0.30293362  0.87829574  0.75547847    -0.78600
C1131       C  0.31436873  0.88428710  0.72735804     0.82100
N1132       N  0.33464950  0.90252594  0.72982909    -0.78600
C1133       C  0.34344238  0.91489934  0.76000486     0.82200
N1134       N  0.33200158  0.90874312  0.78790154    -0.80300
Zr1135     Zr  0.02792844  0.56497085  0.68819780     2.17500
O1136       O  0.02266069  0.60658409  0.66716944    -0.51900
O1137       O  0.05331872  0.54177904  0.64125351    -0.75100
O1138       O  0.07060639  0.58983282  0.69388980    -0.81900
O1139       O  0.45512972  0.54716012  0.65734124    -0.83600
O1140       O  0.09101649  0.58157649  0.74104906    -0.79200
O1141       O  0.49326805  0.56917285  0.64558253    -0.90900
O1142       O  0.06256090  0.50043401  0.65118526    -0.76800
O1143       O  0.05844524  0.53615611  0.70992384    -0.86300
O1144       O  0.00783418  0.52176704  0.67730030    -0.86000
O1145       O  0.03172425  0.58342312  0.74619844    -0.72800
O1146       O  0.48499577  0.57021492  0.71488367    -0.84900
Zr1147     Zr  0.99887681  0.51407239  0.78561879     2.26400
Zr1148     Zr  0.06152475  0.55350532  0.76792317     2.06300
Zr1149     Zr  0.46516352  0.52663239  0.70510814     2.10000
Zr1150     Zr  0.03917775  0.99569163  0.70102690     1.78800
O1151       O  0.41941195  0.54496333  0.71294592    -0.93700
O1152       O  0.08468531  0.97880192  0.70853609    -0.41500
O1153       O  0.49504295  0.49688540  0.72651636    -0.78100
O1154       O  0.04223204  0.50964829  0.75809887    -0.96800
O1155       O  0.01900404  0.55716562  0.79669150    -0.90100
O1156       O  0.46881694  0.54357576  0.76316129    -0.93000
C1157       C  0.06440654  0.51885691  0.63349954     1.00800
C1158       C  0.46868140  0.56116778  0.63972651     1.13700
C1159       C  0.09024091  0.59256783  0.71500199     1.04500
O1160       O  0.10759269  0.53572688  0.76478848    -0.95100
O1161       O  0.07079211  0.53325457  0.81627799    -0.90900
O1162       O  0.03290680  0.51079565  0.82776003    -0.84000
C1163       C  0.05762936  0.51852887  0.83338587     1.11100
O1164       O  0.48714545  0.63094847  0.75885459    -0.97100
Zr1165     Zr  0.48931196  0.58648262  0.77326375     1.88900
O1166       O  0.47623097  0.53841356  0.83356333    -0.73800
O1167       O  0.07338572  0.59128292  0.81064031    -0.53000
O1168       O  0.01252788  0.61591723  0.81827636    -0.97700
O1169       O  0.44228412  0.60081037  0.76913350    -0.54900
O1170       O  0.46930196  0.58102935  0.82593278    -0.74300
C1171       C  0.46728634  0.56216081  0.84293793     0.98100
O1172       O  0.99992142  0.96874768  0.79752009    -0.63100
O1173       O  0.44354227  0.99252949  0.66088531    -0.57900
O1174       O  0.45208515  0.98903404  0.77789934    -0.94600
O1175       O  0.43868322  0.49458303  0.72922049    -0.93000
O1176       O  0.02224648  0.96463538  0.65327486    -0.93400
O1177       O  0.03809217  0.95075959  0.71389419    -0.92100
C1178       C  0.43352468  0.98527223  0.75554523     1.16900
H1179       H  0.00538422  0.51575900  0.65369583     0.32900
H1180       H  0.05364890  0.49736998  0.76737558     0.43700
H1181       H  0.45118726  0.54372648  0.77367875     0.37200
H1182       H  0.03958808  0.60107634  0.74904784     0.33700
H1183       H  0.08787191  0.96525725  0.68841092     0.25500
H1184       H  0.06179674  0.58928511  0.82993872     0.31400
H1185       H  0.99819206  0.62316553  0.83436496     0.37300
H1186       H  0.00272876  0.96232206  0.65813129     0.31800
H1187       H  0.42518524  0.99844950  0.65535270     0.30700
H1188       H  0.40972614  0.53802235  0.69195890     0.32400
H1189       H  0.43145182  0.58982746  0.78218554     0.31300
H1190       H  0.01852413  0.94612743  0.71428830     0.35300
H1191       H  0.51072692  0.96184264  0.79600221     0.28100
H1192       H  0.03702344  0.60635898  0.65008564     0.32300
H1193       H  0.47577746  0.64160789  0.77628474     0.35100
H1194       H  0.45478598  0.99418445  0.64118179     0.27800
H1195       H  0.01953653  0.96471239  0.79899706     0.40600
H1196       H  0.11270905  0.53375535  0.74100687     0.30700
H1197       H  0.09577462  0.49187124  0.70707510     0.38300
H1198       H  0.43710905  0.59420069  0.74571727     0.30200
H1199       H  0.09202523  0.58732838  0.81758693     0.30200
H1200       H  0.02807091  0.62072943  0.68579181     0.30500
C1201       C  0.38926820  0.92436981  0.74094380    -0.20800
C1202       C  0.36721326  0.93263373  0.76203390    -0.07400
C1203       C  0.36810995  0.95764438  0.78332258     0.13500
C1204       C  0.39061570  0.97435372  0.78164309    -0.20900
C1205       C  0.41191266  0.96639838  0.75935454    -0.07400
C1206       C  0.41168172  0.94098015  0.73940913     0.13400
C1207       C  0.43510236  0.93143748  0.71654869    -0.24200
H1208       H  0.38887727  0.90485964  0.72541979     0.14700
H1209       H  0.39126368  0.99395163  0.79697974     0.14800
C1210       C  0.34502400  0.96727943  0.80661816    -0.24200
H1211       H  0.43178292  0.91080236  0.70314857     0.05000
H1212       H  0.45414179  0.93170618  0.73126621     0.08200
H1213       H  0.43762562  0.94460674  0.69771282     0.08200
H1214       H  0.34280801  0.95417872  0.82557053     0.08200
H1215       H  0.32578206  0.96722719  0.79234827     0.08200
H1216       H  0.34862413  0.98786473  0.82002931     0.05000
C1217       C  0.13981889  0.60154416  0.71812790    -0.20800
C1218       C  0.11376880  0.60964170  0.70973438    -0.07400
C1219       C  0.11071734  0.63474318  0.69968970     0.13500
C1220       C  0.13359955  0.65116976  0.69900887    -0.20900
C1221       C  0.15924919  0.64344551  0.70878307    -0.07400
C1222       C  0.16255511  0.61821093  0.71797572     0.13400
C1223       C  0.19000246  0.60878663  0.72748335    -0.24200
H1224       H  0.14228782  0.58226419  0.72558418     0.14700
H1225       H  0.13129806  0.67064926  0.69205161     0.14800
C1226       C  0.08336541  0.64504281  0.69133253    -0.24200
H1227       H  0.18912818  0.58809365  0.73263277     0.05000
H1228       H  0.19743959  0.62180223  0.75026375     0.08200
H1229       H  0.20470984  0.60929034  0.70691316     0.08200
H1230       H  0.06908862  0.64493739  0.71243537     0.08200
H1231       H  0.07537830  0.63243350  0.66853840     0.08200
H1232       H  0.08461495  0.66577406  0.68637720     0.05000
C1233       C  0.22261950  0.70274557  0.59610981    -0.20800
C1234       C  0.23547029  0.72769767  0.60214375    -0.07400
C1235       C  0.23953483  0.74059815  0.63526950     0.13500
C1236       C  0.23053887  0.72823812  0.66144863    -0.20900
C1237       C  0.21775180  0.70309507  0.65571035    -0.07400
C1238       C  0.21389829  0.69010299  0.62231291     0.13400
C1239       C  0.20117769  0.66284081  0.61363258    -0.24200
H1240       H  0.21945840  0.69303937  0.57058457     0.14700
H1241       H  0.23336350  0.73861548  0.68671215     0.14800
C1242       C  0.25232910  0.76788613  0.64328708    -0.24200
H1243       H  0.20141885  0.65541179  0.58638361     0.05000
H1244       H  0.17957504  0.66352581  0.62168322     0.08200
H1245       H  0.21265788  0.64838045  0.62575357     0.08200
H1246       H  0.24093875  0.78199687  0.63055501     0.08200
H1247       H  0.27387235  0.76703534  0.63499663     0.08200
H1248       H  0.25211082  0.77578333  0.67042211     0.05000
C1249       C  0.22871672  0.73330826  0.78002854    -0.20800
C1250       C  0.22152312  0.70621118  0.77660248    -0.07400
C1251       C  0.22344273  0.69340266  0.80473588     0.13500
C1252       C  0.23201638  0.70808097  0.83526513    -0.20900
C1253       C  0.23830954  0.73530834  0.83883913    -0.07400
C1254       C  0.23680938  0.74808121  0.81073094     0.13400
C1255       C  0.24418708  0.77706023  0.81258332    -0.24200
H1256       H  0.22736097  0.74329751  0.75866871     0.14700
H1257       H  0.23321572  0.69830218  0.85683223     0.14800
C1258       C  0.21710276  0.66425564  0.80301002    -0.24200
H1259       H  0.24358350  0.78315462  0.78771020     0.05000
H1260       H  0.26511293  0.78073491  0.82261126     0.08200
H1261       H  0.22955230  0.78984050  0.82876474     0.08200
H1262       H  0.22963965  0.65225011  0.78330279     0.08200
H1263       H  0.19514121  0.66051617  0.79788487     0.08200
H1264       H  0.22165656  0.65739431  0.82684118     0.05000
C1265       C  0.31478138  0.84720573  0.63835868    -0.20800
C1266       C  0.28686508  0.84379978  0.63213579    -0.07400
C1267       C  0.26793082  0.85351498  0.65734830     0.13500
C1268       C  0.27755841  0.86632370  0.68841340    -0.20900
C1269       C  0.30553296  0.87030968  0.69438007    -0.07400
C1270       C  0.32442738  0.86058274  0.66896220     0.13400
C1271       C  0.35478035  0.86354943  0.67389933    -0.24200
H1272       H  0.32916117  0.83977488  0.61878351     0.14700
H1273       H  0.26316236  0.87370296  0.70797650     0.14800
C1274       C  0.23773322  0.84998996  0.65188823    -0.24200
H1275       H  0.36628272  0.85286280  0.65220423     0.05000
H1276       H  0.36106290  0.85524077  0.69617652     0.08200
H1277       H  0.36061233  0.88485408  0.67685825     0.08200
H1278       H  0.23277471  0.82854767  0.64473309     0.08200
H1279       H  0.23100649  0.86077377  0.63190070     0.08200
H1280       H  0.22600565  0.85792447  0.67472671     0.05000
C1281       C  0.27116714  0.85776657  0.84777468    -0.20800
C1282       C  0.29024376  0.85857507  0.87370581    -0.07400
C1283       C  0.31497678  0.87280468  0.87189797     0.13500
C1284       C  0.32031501  0.88411626  0.84362868    -0.20900
C1285       C  0.30218934  0.88137562  0.81664007    -0.07400
C1286       C  0.27680506  0.86873508  0.81926147     0.13400
C1287       C  0.25536290  0.86666039  0.79246896    -0.24200
H1288       H  0.25190790  0.84760182  0.84908173     0.14700
H1289       H  0.33962486  0.89413843  0.84204051     0.14800
C1290       C  0.33640951  0.87601206  0.89885071    -0.24200
H1291       H  0.23596775  0.85836804  0.80035555     0.05000
H1292       H  0.26225320  0.85312510  0.76976125     0.08200
H1293       H  0.25097853  0.88671023  0.78660101     0.08200
H1294       H  0.34506713  0.85632632  0.90121075     0.08200
H1295       H  0.32743832  0.88574224  0.92284816     0.08200
H1296       H  0.35367955  0.88866518  0.89329225     0.05000
C1297       C  0.09846118  0.52281305  0.55007724    -0.20800
C1298       C  0.10376295  0.49582740  0.53866415    -0.07400
C1299       C  0.09503750  0.97804847  0.55902630     0.13500
C1300       C  0.08564025  0.48533750  0.59004150    -0.20900
C1301       C  0.07942084  0.51231352  0.60148021    -0.07400
C1302       C  0.08654305  0.53146225  0.58132816     0.13400
C1303       C  0.08197046  0.56094663  0.59211457    -0.24200
H1304       H  0.10352981  0.53718054  0.53424520     0.14700
H1305       H  0.08041951  0.47042135  0.60500277     0.14800
C1306       C  0.09726184  0.94837063  0.54730220    -0.24200
H1307       H  0.09032831  0.57268967  0.57383148     0.05000
H1308       H  0.09223973  0.56791258  0.61629891     0.08200
H1309       H  0.05987699  0.56525557  0.59430052     0.08200
H1310       H  0.11896499  0.94239479  0.54490277     0.08200
H1311       H  0.08687984  0.94275156  0.52291862     0.08200
H1312       H  0.08763541  0.93686147  0.56502930     0.05000
C1313       C  0.11173811  0.49526514  0.88876091    -0.20800
C1314       C  0.09445184  0.99202343  0.91892240    -0.07400
C1315       C  0.06787374  0.49771064  0.91690131     0.13500
C1316       C  0.05612917  0.50601235  0.88919842    -0.20900
C1317       C  0.07173849  0.50962616  0.86154685    -0.07400
C1318       C  0.09987198  0.50346232  0.86093494     0.13400
C1319       C  0.11744098  0.50459749  0.83086703    -0.24200
H1320       H  0.13223230  0.99595110  0.89374895     0.14700
H1321       H  0.03448851  0.50986159  0.88924264     0.14800
C1322       C  0.04743914  0.98671569  0.94404386    -0.24200
H1323       H  0.13825134  0.49689437  0.83391321     0.05000
H1324       H  0.11960164  0.52550546  0.82696983     0.08200
H1325       H  0.11043866  0.00023416  0.81368747     0.08200
H1326       H  0.05358268  0.50804979  0.96763916     0.08200
H1327       H  0.05182007  0.96597809  0.94742117     0.08200
H1328       H  0.02755697  0.49531970  0.93876494     0.05000
C1329       C  0.15522905  0.91213450  0.94168487    -0.20800
C1330       C  0.16125660  0.93536962  0.96434494    -0.07400
C1331       C  0.18423361  0.93581637  0.98528877     0.13500
C1332       C  0.19959011  0.91260869  0.98430746    -0.20900
C1333       C  0.19237953  0.88867073  0.96357286    -0.07400
C1334       C  0.17029501  0.88864941  0.94121910     0.13400
C1335       C  0.16139647  0.86380553  0.91820855    -0.24200
H1336       H  0.13757192  0.91186960  0.92570895     0.14700
H1337       H  0.21696168  0.91297406  0.00075931     0.14800
C1338       C  0.19275372  0.96060129  0.00887337    -0.24200
H1339       H  0.14289017  0.86723172  0.90390955     0.05000
H1340       H  0.15659802  0.84791596  0.93284445     0.08200
H1341       H  0.17776489  0.85714928  0.89995998     0.08200
H1342       H  0.17740606  0.96585407  0.02884585     0.08200
H1343       H  0.19525695  0.97738065  0.99498976     0.08200
H1344       H  0.21242332  0.95779578  0.02122427     0.05000
C1345       C  0.45392093  0.57570866  0.55354682    -0.20800
C1346       C  0.42760521  0.58662399  0.55773887    -0.07400
C1347       C  0.41433159  0.58761583  0.58878714     0.13500
C1348       C  0.42805120  0.57849251  0.61482267    -0.20900
C1349       C  0.45479623  0.56891426  0.61087193    -0.07400
C1350       C  0.46767458  0.56691180  0.57961153     0.13400
C1351       C  0.49565894  0.55499587  0.57325135    -0.24200
H1352       H  0.46424410  0.57459230  0.52985496     0.14700
H1353       H  0.41813999  0.57959321  0.63879020     0.14800
C1354       C  0.38588191  0.59814252  0.59494033    -0.24200
H1355       H  0.50173636  0.55331836  0.54672995     0.05000
H1356       H  0.49604595  0.53470722  0.57974028     0.08200
H1357       H  0.01163493  0.58160357  0.59445172     0.08200
H1358       H  0.37190798  0.58782839  0.57549188     0.08200
H1359       H  0.38595608  0.61987984  0.59497694     0.08200
H1360       H  0.37797587  0.59504303  0.61952381     0.05000
C1361       C  0.42899305  0.58271489  0.87731107    -0.20800
C1362       C  0.45352885  0.56859919  0.87554470    -0.07400
C1363       C  0.46511280  0.56250999  0.90498727     0.13500
C1364       C  0.45240483  0.57165947  0.93564070    -0.20900
C1365       C  0.42819815  0.58661204  0.93776937    -0.07400
C1366       C  0.41593603  0.59152690  0.90781920     0.13400
C1367       C  0.38896062  0.60555397  0.90719983    -0.24200
H1368       H  0.42003868  0.58699871  0.85451235     0.14700
H1369       H  0.46193774  0.56759328  0.95818179     0.14800
C1370       C  0.49141236  0.54729247  0.90441486    -0.24200
H1371       H  0.38158092  0.60518907  0.88138451     0.05000
H1372       H  0.39093823  0.62679577  0.91884360     0.08200
H1373       H  0.37332507  0.59554543  0.92043303     0.08200
H1374       H  0.50769599  0.55769459  0.89269841     0.08200
H1375       H  0.48859451  0.52689561  0.89013660     0.08200
H1376       H  0.49824595  0.54535949  0.92984497     0.05000
C1377       C  0.38237307  0.67314851  0.99004892    -0.20800
C1378       C  0.37422038  0.65339694  0.51004274    -0.07400
C1379       C  0.34869981  0.65607107  0.52625115     0.13500
C1380       C  0.33252790  0.67832361  0.52383982    -0.20900
C1381       C  0.34099107  0.69807657  0.00540331    -0.07400
C1382       C  0.36569071  0.69492357  0.98746795     0.13400
C1383       C  0.37474883  0.71461208  0.96591874    -0.24200
H1384       H  0.40103554  0.67040209  0.97566359     0.14700
H1385       H  0.31265742  0.68036623  0.53558727     0.14800
C1386       C  0.33780766  0.63502141  0.54451066    -0.24200
H1387       H  0.39539512  0.70992363  0.95544018     0.05000
H1388       H  0.37718613  0.73555315  0.48584025     0.08200
H1389       H  0.36057139  0.71425248  0.94471014     0.08200
H1390       H  0.35072149  0.63403711  0.56642522     0.08200
H1391       H  0.34092017  0.61883017  0.03734450     0.08200
H1392       H  0.31672572  0.63951324  0.55359869     0.05000
C1393       C  0.91383082  0.09469215  0.03122896     0.79700
N1394       N  0.92398580  0.08839421  0.50034767    -0.78600
C1395       C  0.91441280  0.09734662  0.47310255     0.82100
N1396       N  0.89751691  0.11861789  0.47734824    -0.78600
C1397       C  0.88745018  0.12555227  0.00837467     0.82200
N1398       N  0.89649141  0.11577166  0.03531690    -0.80300
C1399       C  0.61349158  0.48625764  0.44554029     0.79700
N1400       N  0.63454705  0.46868952  0.44100857    -0.78600
C1401       C  0.64704543  0.46134422  0.46775996     0.82100
N1402       N  0.63242730  0.46563788  0.99755939    -0.78600
C1403       C  0.61231697  0.48392180  0.00194564     0.82200
N1404       N  0.59784574  0.99333118  0.47621385    -0.80300
Zr1405     Zr  0.73779489  0.30627102  0.43790573     2.17500
O1406       O  0.69433681  0.30157703  0.40881345    -0.51900
O1407       O  0.76229453  0.33129179  0.40239550    -0.75100
O1408       O  0.71542247  0.34929547  0.44500188    -0.81900
O1409       O  0.75789278  0.23677435  0.39544217    -0.83600
O1410       O  0.72063329  0.36383406  0.99585079    -0.79200
O1411       O  0.73552796  0.27396901  0.38695801    -0.90900
O1412       O  0.80517469  0.33852530  0.42233502    -0.76800
O1413       O  0.76568364  0.33610795  0.47457172    -0.86300
O1414       O  0.78237125  0.28771143  0.43354787    -0.86000
O1415       O  0.71684092  0.30898356  0.49155592    -0.72800
O1416       O  0.73326239  0.26333312  0.45346747    -0.84900
Zr1417     Zr  0.78711424  0.27384196  0.03792530     2.26400
Zr1418     Zr  0.74561609  0.33406152  0.02535557     2.06300
Zr1419     Zr  0.77820169  0.24541113  0.45050844     2.10000
Zr1420     Zr  0.80992039  0.31738857  0.47091676     1.78800
O1421       O  0.76090342  0.19992510  0.44107221    -0.93700
O1422       O  0.82293932  0.36345283  0.49112520    -0.41500
O1423       O  0.80664185  0.27474805  0.48768401    -0.78100
O1424       O  0.79104178  0.31682974  0.02192551    -0.96800
O1425       O  0.74236804  0.29184412  0.04283391    -0.90100
O1426       O  0.75914829  0.24353988  0.00186459    -0.93000
C1427       C  0.78628195  0.34104956  0.40145582     1.00800
C1428       C  0.74370117  0.24998573  0.37743327     1.13700
C1429       C  0.71298151  0.36878109  0.46929624     1.01900
O1430       O  0.76322738  0.37890786  0.04335850    -0.95100
O1431       O  0.76240999  0.34153633  0.08229947    -0.90900
O1432       O  0.78831749  0.30583266  0.08898301    -0.84000
C1433       C  0.77808144  0.32887424  0.09934315     1.11100
O1434       O  0.67020403  0.26678048  0.47971315    -0.97100
Zr1435     Zr  0.71464066  0.26209108  0.00600008     1.88900
O1436       O  0.76284085  0.25014350  0.07524890    -0.73800
O1437       O  0.70387054  0.34433564  0.05713074    -0.53000
O1438       O  0.67967138  0.28482700  0.04265959    -0.97700
O1439       O  0.70000012  0.22037660  0.48577247    -0.54900
O1440       O  0.71954540  0.24339188  0.05649862    -0.74300
C1441       C  0.73855741  0.24149805  0.07753546     0.98100
O1442       O  0.83213637  0.27599332  0.06369090    -0.63100
O1443       O  0.81696731  0.23476088  0.41322284    -0.57900
O1444       O  0.81187807  0.23223298  0.03005869    -0.94600
O1445       O  0.81020552  0.21948790  0.47662383    -0.93000
O1446       O  0.84657457  0.29873168  0.43393864    -0.93400
O1447       O  0.85444945  0.32032008  0.49752397    -0.92100
C1448       C  0.81876682  0.21920239  0.50623629     1.16900
H1449       H  0.78925963  0.28571402  0.41106456     0.32900
H1450       H  0.80277701  0.32820418  0.03725753     0.43700
H1451       H  0.75917027  0.22609134  0.00813180     0.37200
H1452       H  0.69886725  0.31659693  0.49138060     0.33700
H1453       H  0.83838481  0.36685539  0.47680769     0.25500
H1454       H  0.70549877  0.33459227  0.07605725     0.31400
H1455       H  0.67265136  0.27125242  0.05522665     0.37300
H1456       H  0.85062493  0.28133489  0.44053892     0.31800
H1457       H  0.81851451  0.21511750  0.40989421     0.30700
H1458       H  0.77516445  0.18935864  0.42765901     0.32400
H1459       H  0.71213834  0.20538794  0.00089214     0.31300
H1460       H  0.85768399  0.29863211  0.99784195     0.35300
H1461       H  0.84497813  0.27053808  0.04504478     0.28100
H1462       H  0.69479482  0.31476255  0.39360982     0.32300
H1463       H  0.65884119  0.25302224  0.48755202     0.35100
H1464       H  0.81095025  0.23859384  0.39137739     0.27800
H1465       H  0.83611601  0.29517025  0.07078132     0.40600
H1466       H  0.76781351  0.38545388  0.02252994     0.30700
H1467       H  0.80782322  0.37415423  0.48431771     0.38300
H1468       H  0.70684468  0.21696780  0.46259013     0.30200
H1469       H  0.70580478  0.36333230  0.06730541     0.30200
H1470       H  0.68058903  0.30831474  0.42592854     0.30500
C1471       C  0.70704426  0.19218564  0.19015857     0.79700
N1472       N  0.71690900  0.20296569  0.22063547    -0.78600
C1473       C  0.70893763  0.19369807  0.24844932     0.82100
N1474       N  0.69050581  0.17354471  0.24567451    -0.78600
C1475       C  0.68066453  0.16250759  0.21535924     0.82200
N1476       N  0.68878405  0.17203234  0.18794080    -0.80300
C1477       C  0.81550518  0.38592664  0.28511173     0.79700
N1478       N  0.80586318  0.37537758  0.25453600    -0.78600
C1479       C  0.81676107  0.38221070  0.22668195     0.82100
N1480       N  0.83758929  0.39990365  0.22943020    -0.78600
C1481       C  0.84743874  0.41080143  0.25981011     0.82200
N1482       N  0.83649169  0.40356045  0.28743646    -0.80300
Zr1483     Zr  0.52695944  0.06475314  0.18678302     2.17500
O1484       O  0.52430795  0.10484835  0.16192307    -0.51900
O1485       O  0.55034298  0.04014828  0.13885366    -0.75100
O1486       O  0.56964617  0.08975789  0.19395015    -0.81900
O1487       O  0.95545124  0.04867521  0.16077804    -0.83600
O1488       O  0.58969072  0.08087024  0.24099723    -0.79200
O1489       O  0.99369355  0.07048648  0.14928890    -0.90900
O1490       O  0.55614439  0.99786149  0.14743687    -0.76800
O1491       O  0.55676453  0.03569886  0.20924976    -0.86300
O1492       O  0.50620719  0.02184357  0.17639653    -0.86000
O1493       O  0.53055851  0.08360851  0.24468924    -0.72800
O1494       O  0.98474999  0.07107518  0.21800623    -0.84900
Zr1495     Zr  0.49620375  0.01534840  0.28541809     2.26400
Zr1496     Zr  0.55943384  0.05337639  0.26729864     2.06300
Zr1497     Zr  0.96541905  0.02741187  0.20801136     2.10000
Zr1498     Zr  0.53993364  0.49382799  0.20012960     1.78800
O1499       O  0.91990483  0.04585249  0.21810096    -0.93700
O1500       O  0.58721482  0.48016110  0.20353964    -0.41500
O1501       O  0.99513577  0.99796575  0.23043581    -0.78100
O1502       O  0.53960582  0.00973282  0.25792209    -0.96800
O1503       O  0.51680462  0.05823665  0.29586677    -0.90100
O1504       O  0.96776595  0.04435235  0.26619900    -0.93000
C1505       C  0.55883495  0.01626090  0.12984551     1.00800
C1506       C  0.96906910  0.06273561  0.14327470     1.13700
C1507       C  0.58915278  0.09216469  0.21524318     1.04500
O1508       O  0.60568799  0.03606051  0.26426242    -0.95100
O1509       O  0.56913249  0.03331111  0.31549563    -0.90900
O1510       O  0.53096434  0.01129270  0.32675955    -0.84000
C1511       C  0.55575177  0.01879742  0.33260054     1.11100
O1512       O  0.98997867  0.13238013  0.26357881    -0.97100
Zr1513     Zr  0.98785131  0.08746522  0.27656873     1.88900
O1514       O  0.97403111  0.03940615  0.33622551    -0.73800
O1515       O  0.56962646  0.09057290  0.31160532    -0.53000
O1516       O  0.51225827  0.12065024  0.31083495    -0.97700
O1517       O  0.94243248  0.10440329  0.26827721    -0.54900
O1518       O  0.96434254  0.08113055  0.32704639    -0.74300
C1519       C  0.96335332  0.06250403  0.34454730     0.98100
O1520       O  0.50543341  0.47358925  0.30894325    -0.63100
O1521       O  0.95021083  0.48846954  0.16175094    -0.57900
O1522       O  0.95460842  0.48802753  0.28059508    -0.94600
O1523       O  0.94032093  0.99329749  0.22935455    -0.93000
O1524       O  0.51739500  0.45994272  0.15985515    -0.93400
O1525       O  0.54613901  0.44937200  0.21325162    -0.92100
C1526       C  0.93713301  0.48257465  0.25704355     1.16900
H1527       H  0.50362746  0.01570259  0.15284690     0.32900
H1528       H  0.55082547  0.99737248  0.26731956     0.43700
H1529       H  0.94991378  0.04424628  0.27610412     0.37200
H1530       H  0.53866739  0.10115069  0.24744412     0.33700
H1531       H  0.59086209  0.46837166  0.18205045     0.25500
H1532       H  0.58860301  0.08750464  0.31814137     0.31400
H1533       H  0.50536775  0.11927416  0.33329134     0.37300
H1534       H  0.50079806  0.45522785  0.17138264     0.31800
H1535       H  0.93019589  0.48986763  0.15989433     0.30700
H1536       H  0.90824241  0.03462594  0.20151264     0.32400
H1537       H  0.93048244  0.09672032  0.28376374     0.31300
H1538       H  0.53966936  0.45076413  0.23648397     0.35300
H1539       H  0.99186072  0.45604304  0.28443496     0.28100
H1540       H  0.54000032  0.10390421  0.14652268     0.32300
H1541       H  0.97935709  0.14365309  0.28124944     0.35100
H1542       H  0.95732442  0.49353865  0.14098895     0.27800
H1543       H  0.50067643  0.45906047  0.29043741     0.40600
H1544       H  0.61652643  0.04985741  0.27867348     0.30700
H1545       H  0.59381277  0.99387698  0.20090909     0.38300
H1546       H  0.93690732  0.09526694  0.24587749     0.30200
H1547       H  0.57073809  0.10634424  0.30047028     0.30200
H1548       H  0.52834277  0.11978261  0.18019157     0.30500
C1549       C  0.89151085  0.42260674  0.23756967    -0.20800
C1550       C  0.87140052  0.42853954  0.26213086    -0.07400
C1551       C  0.87438212  0.45137680  0.28714332     0.13500
C1552       C  0.89681935  0.46829395  0.28582956    -0.20900
C1553       C  0.91595151  0.46290904  0.26010947    -0.07400
C1554       C  0.91370551  0.43951063  0.23617720     0.13400
C1555       C  0.93482924  0.43215011  0.20930611    -0.24200
H1556       H  0.88977324  0.40468072  0.21913291     0.14700
H1557       H  0.89892319  0.48628895  0.30416384     0.14800
C1558       C  0.85355187  0.45874318  0.31428728    -0.24200
H1559       H  0.93051594  0.41246851  0.19377376     0.05000
H1560       H  0.95521267  0.43116952  0.22077332     0.08200
H1561       H  0.93518373  0.44712245  0.19255467     0.08200
H1562       H  0.85299986  0.44338922  0.33054511     0.08200
H1563       H  0.83315917  0.46050109  0.30316467     0.08200
H1564       H  0.85842470  0.47808324  0.33029720     0.05000
C1565       C  0.63867146  0.10092950  0.21966140    -0.20800
C1566       C  0.61281281  0.10923687  0.21076249    -0.07400
C1567       C  0.61004472  0.13456020  0.20127794     0.13500
C1568       C  0.63290461  0.15115368  0.20220838    -0.20900
C1569       C  0.65826329  0.14322237  0.21261999    -0.07400
C1570       C  0.66146806  0.11762199  0.22059234     0.13400
C1571       C  0.68889958  0.10780737  0.22956961    -0.24200
H1572       H  0.64095245  0.08140044  0.22647090     0.14700
H1573       H  0.63084563  0.17082808  0.19573602     0.14800
C1574       C  0.58306181  0.14482385  0.19156013    -0.24200
H1575       H  0.68789632  0.08696149  0.23415336     0.05000
H1576       H  0.69663423  0.12049559  0.25247767     0.08200
H1577       H  0.70345261  0.10851567  0.20888534     0.08200
H1578       H  0.56797709  0.14446574  0.21176816     0.08200
H1579       H  0.57594494  0.13234927  0.16820210     0.08200
H1580       H  0.58455362  0.16563545  0.18693157     0.05000
C1581       C  0.71094206  0.20921979  0.10231541    -0.20800
C1582       C  0.73179203  0.22834867  0.10624716    -0.07400
C1583       C  0.74475159  0.23504735  0.13758704     0.13500
C1584       C  0.73644839  0.22241867  0.16384430    -0.20900
C1585       C  0.71530547  0.20345801  0.16019333    -0.07400
C1586       C  0.70238476  0.19674424  0.12863462     0.13400
C1587       C  0.67926110  0.17697966  0.12194119    -0.24200
H1588       H  0.70109243  0.20400991  0.07829529     0.14700
H1589       H  0.74656120  0.22775948  0.18765112     0.14800
C1590       C  0.76664124  0.25614330  0.14429436    -0.24200
H1591       H  0.67164121  0.17492931  0.09598783     0.05000
H1592       H  0.66184662  0.18366722  0.13864352     0.08200
H1593       H  0.68621451  0.15696151  0.12553430     0.08200
H1594       H  0.75899968  0.27523804  0.13822398     0.08200
H1595       H  0.78504298  0.24968204  0.12929597     0.08200
H1596       H  0.77297500  0.25991212  0.17082901     0.05000
C1597       C  0.72300915  0.23500409  0.28592534    -0.20800
C1598       C  0.71838055  0.20740023  0.28154814    -0.07400
C1599       C  0.72298901  0.19387417  0.30857166     0.13500
C1600       C  0.73161085  0.20837073  0.33918509    -0.20900
C1601       C  0.73552824  0.23609374  0.34385453    -0.07400
C1602       C  0.73137585  0.24956663  0.31661609     0.13400
C1603       C  0.73634441  0.27907693  0.31912918    -0.24200
H1604       H  0.71960636  0.24542810  0.26525041     0.14700
H1605       H  0.73483233  0.19794342  0.35989490     0.14800
C1606       C  0.71956779  0.16414504  0.30537215    -0.24200
H1607       H  0.73407259  0.28565314  0.29467713     0.05000
H1608       H  0.75737534  0.28402565  0.32808899     0.08200
H1609       H  0.72142170  0.29050816  0.33634181     0.08200
H1610       H  0.73207643  0.15388828  0.28434874     0.08200
H1611       H  0.69783004  0.15865064  0.30127268     0.08200
H1612       H  0.72614369  0.15682746  0.32824519     0.05000
C1613       C  0.81499900  0.34470558  0.13807357    -0.20800
C1614       C  0.78693027  0.34242333  0.13233292    -0.07400
C1615       C  0.76855721  0.35286261  0.15781192     0.13500
C1616       C  0.77887093  0.36613020  0.18831698    -0.20900
C1617       C  0.80704786  0.36906095  0.19373614    -0.07400
C1618       C  0.82534753  0.35779699  0.16843844     0.13400
C1619       C  0.85574529  0.35851413  0.17353564    -0.24200
H1620       H  0.82896081  0.33632315  0.11846029     0.14700
H1621       H  0.76490821  0.37417846  0.20808051     0.14800
C1622       C  0.73829912  0.34900204  0.15339763    -0.24200
H1623       H  0.86664512  0.34670749  0.15209046     0.05000
H1624       H  0.86097816  0.35007808  0.19609222     0.08200
H1625       H  0.86319357  0.37930061  0.17615681     0.08200
H1626       H  0.73355197  0.32739071  0.14743360     0.08200
H1627       H  0.73099809  0.35895868  0.13291599     0.08200
H1628       H  0.72697962  0.35752276  0.17633606     0.05000
C1629       C  0.77698228  0.34850111  0.34424623    -0.20800
C1630       C  0.79253992  0.35508029  0.37336622    -0.07400
C1631       C  0.81352423  0.37426795  0.37439133     0.13500
C1632       C  0.81963576  0.38456821  0.34552548    -0.20900
C1633       C  0.80540920  0.37644166  0.31550680    -0.07400
C1634       C  0.78297467  0.35877472  0.31538134     0.13400
C1635       C  0.76504760  0.35018598  0.28537016    -0.24200
H1636       H  0.76036796  0.33441861  0.34360241     0.14700
H1637       H  0.83628381  0.39863075  0.34642584     0.14800
C1638       C  0.82936143  0.38450137  0.40568443    -0.24200
H1639       H  0.74754290  0.33789226  0.29110042     0.05000
H1640       H  0.77678595  0.33777983  0.26520713     0.08200
H1641       H  0.75655658  0.36794444  0.27662878     0.08200
H1642       H  0.84220058  0.36844455  0.41262644     0.08200
H1643       H  0.81510679  0.39210523  0.42625469     0.08200
H1644       H  0.84321400  0.40111282  0.40239410     0.05000
C1645       C  0.59376849  0.01796213  0.04621677    -0.20800
C1646       C  0.59628064  0.99066726  0.03416032    -0.07400
C1647       C  0.59071597  0.47407466  0.05412056     0.13500
C1648       C  0.57417912  0.98123569  0.08385827    -0.20900
C1649       C  0.57193568  0.00863407  0.09667634    -0.07400
C1650       C  0.58189873  0.02732262  0.07734633     0.13400
C1651       C  0.58063985  0.05702283  0.08905730    -0.24200
H1652       H  0.60134835  0.03201871  0.03119552     0.14700
H1653       H  0.56620299  0.96667370  0.09786228     0.14800
C1654       C  0.59170644  0.44446175  0.04146075    -0.24200
H1655       H  0.59050618  0.06820423  0.07114528     0.05000
H1656       H  0.59136114  0.06237819  0.11324583     0.08200
H1657       H  0.55914160  0.06364406  0.09162637     0.08200
H1658       H  0.61314040  0.43762371  0.03886166     0.08200
H1659       H  0.58129703  0.43979511  0.01698695     0.08200
H1660       H  0.58144587  0.43294110  0.05872110     0.05000
C1661       C  0.60913035  0.99502919  0.38875275    -0.20800
C1662       C  0.59945920  0.49408944  0.41673945    -0.07400
C1663       C  0.56485466  0.99731205  0.41592327     0.13500
C1664       C  0.55357314  0.00607646  0.38826033    -0.20900
C1665       C  0.56958792  0.00991439  0.36102422    -0.07400
C1666       C  0.59783896  0.00419450  0.36122004     0.13400
C1667       C  0.61625036  0.00704754  0.33244728    -0.24200
H1668       H  0.63695305  0.49529164  0.38981840     0.14700
H1669       H  0.53196406  0.01016449  0.38803622     0.14800
C1670       C  0.55243888  0.49099278  0.44320348    -0.24200
H1671       H  0.63718926  0.99990415  0.33611154     0.05000
H1672       H  0.61787903  0.02832917  0.32998965     0.08200
H1673       H  0.61340278  0.49806898  0.30967786     0.08200
H1674       H  0.55056012  0.00787473  0.46662838     0.08200
H1675       H  0.55626430  0.47032962  0.44729591     0.08200
H1676       H  0.52431342  0.99610620  0.43763022     0.05000
C1677       C  0.66194284  0.41662063  0.44063574    -0.20800
C1678       C  0.66742590  0.43982116  0.46352184    -0.07400
C1679       C  0.69021901  0.44057789  0.48474591     0.13500
C1680       C  0.70559705  0.41742932  0.48436517    -0.20900
C1681       C  0.69860566  0.39332596  0.46375964    -0.07400
C1682       C  0.67707162  0.39326943  0.44055019     0.13400
C1683       C  0.66870346  0.36857783  0.41689781    -0.24200
H1684       H  0.64455816  0.41623349  0.42420214     0.14700
H1685       H  0.72268155  0.41796505  0.50127128     0.14800
C1686       C  0.69845741  0.46565688  0.50794134    -0.24200
H1687       H  0.65087581  0.37217951  0.40154677     0.05000
H1688       H  0.66294856  0.35272886  0.43115636     0.08200
H1689       H  0.68568337  0.36186733  0.39955687     0.08200
H1690       H  0.68296522  0.47105937  0.52770773     0.08200
H1691       H  0.70088939  0.48221794  0.49367524     0.08200
H1692       H  0.71810216  0.46316498  0.52050172     0.05000
C1693       C  0.95435326  0.07837865  0.05722748    -0.20800
C1694       C  0.92689011  0.08598394  0.06031675    -0.07400
C1695       C  0.91323007  0.08537643  0.09077182     0.13500
C1696       C  0.92752289  0.07747230  0.11723093    -0.20900
C1697       C  0.95519935  0.07065498  0.11433433    -0.07400
C1698       C  0.96871982  0.07091814  0.08376508     0.13400
C1699       C  0.99814499  0.06301229  0.07856454    -0.24200
H1700       H  0.96494731  0.07885133  0.03400513     0.14700
H1701       H  0.91712574  0.07708338  0.14060958     0.14800
C1702       C  0.88361188  0.09252813  0.09558304    -0.24200
H1703       H  0.00472681  0.06253576  0.05240131     0.05000
H1704       H  0.00140093  0.04285632  0.08473635     0.08200
H1705       H  0.51057487  0.08448165  0.09568674     0.08200
H1706       H  0.87124512  0.08044184  0.07572110     0.08200
H1707       H  0.88087370  0.11402864  0.09506927     0.08200
H1708       H  0.87586198  0.08878138  0.11996750     0.05000
C1709       C  0.92294191  0.07785727  0.37896980    -0.20800
C1710       C  0.94979197  0.06849737  0.37717048    -0.07400
C1711       C  0.96403308  0.06667283  0.40670935     0.13500
C1712       C  0.95149605  0.07539338  0.43746482    -0.20900
C1713       C  0.92503557  0.08599830  0.43958012    -0.07400
C1714       C  0.91019540  0.08638654  0.40981224     0.13400
C1715       C  0.88090624  0.09523726  0.41009424    -0.24200
H1716       H  0.91203671  0.07877171  0.35608972     0.14700
H1717       H  0.96294722  0.07481572  0.46002905     0.14800
C1718       C  0.99296079  0.05674581  0.40595080    -0.24200
H1719       H  0.87196303  0.09164173  0.38470874     0.05000
H1720       H  0.87937095  0.11690353  0.41964033     0.08200
H1721       H  0.86857824  0.08396415  0.42584483     0.08200
H1722       H  0.00611136  0.06905165  0.39237738     0.08200
H1723       H  0.99369260  0.03567467  0.39335654     0.08200
H1724       H  0.00143044  0.05770095  0.43137105     0.05000
C1725       C  0.88109578  0.17548707  0.49697071    -0.20800
C1726       C  0.87074259  0.14979736  0.01201732    -0.07400
C1727       C  0.84433937  0.15115346  0.02591620     0.13500
C1728       C  0.82824572  0.17368128  0.02453597    -0.20900
C1729       C  0.83813703  0.19814622  0.51026709    -0.07400
C1730       C  0.86439179  0.19758075  0.49612342     0.13400
C1731       C  0.87478095  0.22028553  0.48022373    -0.24200
H1732       H  0.90108286  0.17464860  0.48553385     0.14700
H1733       H  0.80767111  0.17465351  0.03430310     0.14800
C1734       C  0.83251101  0.12832115  0.04028407    -0.24200
H1735       H  0.89604146  0.21688856  0.47122618     0.05000
H1736       H  0.87531625  0.23468809  0.99882387     0.08200
H1737       H  0.86187726  0.22261961  0.45860137     0.08200
H1738       H  0.84467234  0.12502059  0.06203659     0.08200
H1739       H  0.83583778  0.11361571  0.52338636     0.08200
H1740       H  0.81118620  0.13230553  0.04873551     0.05000
C1741       C  0.91635999  0.10000075  0.53147442     0.79700
N1742       N  0.92210722  0.08375353  0.00001349    -0.78600
C1743       C  0.91317600  0.09339169  0.97289627     0.82100
N1744       N  0.89619215  0.11457165  0.97757405    -0.78600
C1745       C  0.88946719  0.13028230  0.50822637     0.82200
N1746       N  0.89906569  0.12109675  0.53536267    -0.80300
C1747       C  0.60968062  0.48185246  0.94395446     0.79700
N1748       N  0.63010022  0.46347687  0.93976006    -0.78600
C1749       C  0.64182455  0.45561984  0.96674666     0.82100
N1750       N  0.63779854  0.47099589  0.49877116    -0.78600
C1751       C  0.61686718  0.48841928  0.50343894     0.82200
N1752       N  0.59713572  0.99028912  0.97433937    -0.80300
Zr1753     Zr  0.73736008  0.30240453  0.93483246     2.17500
O1754       O  0.69516678  0.29718615  0.90297870    -0.51900
O1755       O  0.76118737  0.32884514  0.89998353    -0.75100
O1756       O  0.71277734  0.34439653  0.94246895    -0.81900
O1757       O  0.75903489  0.23284390  0.89258349    -0.83600
O1758       O  0.72221365  0.36863356  0.49874933    -0.79200
O1759       O  0.73543668  0.26948431  0.88447959    -0.90900
O1760       O  0.80358603  0.33774623  0.92081556    -0.76800
O1761       O  0.76504333  0.33258927  0.97141526    -0.86300
O1762       O  0.78207469  0.28411728  0.93034702    -0.86000
O1763       O  0.71666303  0.30467231  0.98860084    -0.72800
O1764       O  0.73332156  0.25964374  0.95129314    -0.84900
Zr1765     Zr  0.78609934  0.27715826  0.54144141     2.26400
Zr1766     Zr  0.74590102  0.33802296  0.52828073     2.06300
Zr1767     Zr  0.77845569  0.24178421  0.94790755     2.10000
Zr1768     Zr  0.80951174  0.31427835  0.96724351     1.78800
O1769       O  0.75952883  0.19697911  0.94091800    -0.93700
O1770       O  0.82440305  0.35948664  0.98921648    -0.41500
O1771       O  0.80715126  0.27155960  0.98400581    -0.78100
O1772       O  0.79109202  0.32012648  0.52551087    -0.96800
O1773       O  0.74153541  0.29564417  0.54510456    -0.90100
O1774       O  0.75841314  0.24716605  0.50434104    -0.93000
C1775       C  0.78459983  0.34004082  0.89996779     1.00800
C1776       C  0.74434522  0.24578523  0.87484462     1.13700
C1777       C  0.71048260  0.36387091  0.96680918     1.01900
O1778       O  0.76257943  0.38332451  0.54527158    -0.95100
O1779       O  0.76268089  0.34614334  0.58494109    -0.90900
O1780       O  0.78655463  0.30947677  0.59276115    -0.84000
C1781       C  0.77726629  0.33305079  0.60256266     1.11100
O1782       O  0.66939729  0.25626834  0.98116399    -0.97100
Zr1783     Zr  0.71398844  0.26594254  0.50770935     1.88900
O1784       O  0.76069071  0.25321557  0.57771904    -0.73800
O1785       O  0.70435516  0.34732854  0.56070561    -0.53000
O1786       O  0.67738326  0.28255277  0.54598462    -0.97700
O1787       O  0.70086298  0.21589618  0.98777819    -0.54900
O1788       O  0.71809515  0.24510860  0.55664431    -0.74300
C1789       C  0.73657558  0.24370843  0.57848045     0.98100
O1790       O  0.82988217  0.27952843  0.57033707    -0.63100
O1791       O  0.81607312  0.22772007  0.90999097    -0.57900
O1792       O  0.81186456  0.23583442  0.53219088    -0.94600
O1793       O  0.81115738  0.21640827  0.97435407    -0.93000
O1794       O  0.84464024  0.29551441  0.92802651    -0.93400
O1795       O  0.85447846  0.31667389  0.99272427    -0.92100
C1796       C  0.81909955  0.21575297  0.00419337     1.16900
H1797       H  0.78880290  0.28221278  0.90779902     0.32900
H1798       H  0.80289366  0.33130358  0.54097583     0.43700
H1799       H  0.75821568  0.22963774  0.51038095     0.37200
H1800       H  0.69854822  0.31198864  0.98853806     0.33700
H1801       H  0.83886567  0.36333891  0.97379337     0.25500
H1802       H  0.70554960  0.33596077  0.57806066     0.31400
H1803       H  0.66772233  0.26641335  0.55032008     0.37300
H1804       H  0.84745483  0.27725525  0.93262529     0.31800
H1805       H  0.80970230  0.21106394  0.89591506     0.30700
H1806       H  0.77068634  0.18646684  0.92315117     0.32400
H1807       H  0.71139716  0.20901582  0.49761189     0.31300
H1808       H  0.85231901  0.31055126  0.51636809     0.35300
H1809       H  0.84352889  0.27306115  0.55295710     0.28100
H1810       H  0.69598379  0.31074734  0.88828181     0.32300
H1811       H  0.65834160  0.24742853  0.99645849     0.35100
H1812       H  0.81669267  0.24089805  0.89477662     0.27800
H1813       H  0.83420442  0.29872328  0.57644350     0.40600
H1814       H  0.78234270  0.38221772  0.54052663     0.30700
H1815       H  0.80899214  0.37091228  0.98494610     0.38300
H1816       H  0.70792178  0.21125793  0.96477217     0.30200
H1817       H  0.70690113  0.36569140  0.57295837     0.30200
H1818       H  0.68059091  0.30325525  0.91926901     0.30500
C1819       C  0.70490261  0.19159837  0.68830108     0.79700
N1820       N  0.71610250  0.20071785  0.71852500    -0.78600
C1821       C  0.70829624  0.19104590  0.74606685     0.82100
N1822       N  0.68890849  0.17178500  0.74317882    -0.78600
C1823       C  0.67765863  0.16225781  0.71309204     0.82200
N1824       N  0.68529922  0.17257285  0.68594488    -0.80300
C1825       C  0.81416170  0.39043835  0.78789387     0.79700
N1826       N  0.80436727  0.38097638  0.75706415    -0.78600
C1827       C  0.81597469  0.38752301  0.72949590     0.82100
N1828       N  0.83767412  0.40411571  0.73280681    -0.78600
C1829       C  0.84783420  0.41412036  0.76331544     0.82200
N1830       N  0.83618753  0.40705181  0.79084761    -0.80300
Zr1831     Zr  0.52341168  0.06523038  0.68760454     2.17500
O1832       O  0.51858278  0.10657371  0.66579496    -0.51900
O1833       O  0.54774181  0.04185115  0.63941773    -0.75100
O1834       O  0.56595726  0.09025846  0.69431567    -0.81900
O1835       O  0.95641292  0.04908810  0.65803720    -0.83600
O1836       O  0.58689545  0.07987049  0.74002325    -0.79200
O1837       O  0.99439296  0.07229614  0.64899651    -0.90900
O1838       O  0.55333247  0.99928068  0.64686823    -0.76800
O1839       O  0.55331737  0.03531573  0.70840812    -0.86300
O1840       O  0.50226287  0.02260870  0.67611981    -0.86000
O1841       O  0.52762415  0.08284080  0.74595184    -0.72800
O1842       O  0.98446904  0.07078717  0.71712459    -0.84900
Zr1843     Zr  0.49449198  0.01343298  0.78421872     2.26400
Zr1844     Zr  0.55702992  0.05207016  0.76667101     2.06300
Zr1845     Zr  0.96565565  0.02698259  0.70495803     2.10000
Zr1846     Zr  0.53764569  0.49376716  0.69773446     1.78800
O1847       O  0.91956925  0.04446871  0.71229541    -0.93700
O1848       O  0.58303638  0.47578325  0.70283120    -0.41500
O1849       O  0.99541113  0.99737902  0.72701155    -0.78100
O1850       O  0.53732751  0.00833108  0.75575423    -0.96800
O1851       O  0.51489435  0.05632639  0.79626611    -0.90100
O1852       O  0.96742645  0.04292376  0.76343573    -0.93000
C1853       C  0.55649243  0.01806697  0.63005182     1.00800
C1854       C  0.97007193  0.06417086  0.64186138     1.13700
C1855       C  0.58587211  0.09202139  0.71497045     1.04500
O1856       O  0.60440240  0.03817523  0.76602057    -0.95100
O1857       O  0.56796246  0.02976674  0.81294002    -0.90900
O1858       O  0.52967071  0.00807786  0.82455842    -0.84000
C1859       C  0.55464172  0.01508886  0.82995021     1.11100
O1860       O  0.98381262  0.13116472  0.76369254    -0.97100
Zr1861     Zr  0.98686371  0.08617209  0.77598929     1.88900
O1862       O  0.97355746  0.03606134  0.83461049    -0.73800
O1863       O  0.56506943  0.08994646  0.81081232    -0.53000
O1864       O  0.50721038  0.11708764  0.81824956    -0.97700
O1865       O  0.94030752  0.10188035  0.77258530    -0.54900
O1866       O  0.96612034  0.07879915  0.82778153    -0.74300
C1867       C  0.96415667  0.05958544  0.84432627     0.98100
O1868       O  0.49847842  0.47105678  0.80191095    -0.63100
O1869       O  0.94862444  0.49168801  0.66101079    -0.57900
O1870       O  0.95585235  0.49015587  0.77991822    -0.94600
O1871       O  0.93922324  0.99374411  0.72662714    -0.93000
O1872       O  0.51622066  0.46315543  0.65267860    -0.93400
O1873       O  0.53669629  0.44850536  0.70947436    -0.92100
C1874       C  0.93887120  0.48390541  0.75594915     1.16900
H1875       H  0.49945443  0.01698904  0.65250905     0.32900
H1876       H  0.54867340  0.99557970  0.76425482     0.43700
H1877       H  0.94949702  0.04262456  0.77313808     0.37200
H1878       H  0.53575867  0.10038269  0.74918102     0.33700
H1879       H  0.58526175  0.46204297  0.68267872     0.25500
H1880       H  0.56166370  0.08311203  0.83175818     0.31400
H1881       H  0.50950660  0.10730074  0.83704780     0.37300
H1882       H  0.53154273  0.45343830  0.64034042     0.31800
H1883       H  0.93028487  0.49769934  0.65554862     0.30700
H1884       H  0.90944644  0.03523053  0.69266835     0.32400
H1885       H  0.92902250  0.08981838  0.78361088     0.31300
H1886       H  0.52107415  0.44821190  0.72476737     0.35300
H1887       H  0.99354261  0.45742230  0.78095643     0.28100
H1888       H  0.53330599  0.10628742  0.64914974     0.32300
H1889       H  0.98839949  0.12922556  0.73974609     0.35100
H1890       H  0.95989733  0.49342429  0.64136069     0.27800
H1891       H  0.49829409  0.47458517  0.82655809     0.40600
H1892       H  0.60396105  0.01890296  0.75682895     0.30700
H1893       H  0.58955870  0.99119049  0.70284774     0.38300
H1894       H  0.93553886  0.09717609  0.74871340     0.30200
H1895       H  0.58498942  0.09287159  0.81053625     0.30200
H1896       H  0.52355496  0.12090560  0.68440849     0.30500
C1897       C  0.89249539  0.42392145  0.74051675    -0.20800
C1898       C  0.87264931  0.43085730  0.76530460    -0.07400
C1899       C  0.87602580  0.45444901  0.78890781     0.13500
C1900       C  0.89848411  0.47106294  0.78601479    -0.20900
C1901       C  0.91724831  0.46474746  0.75994615    -0.07400
C1902       C  0.91461161  0.44062689  0.73736252     0.13400
C1903       C  0.93516548  0.43233731  0.71005098    -0.24200
H1904       H  0.89040267  0.40548598  0.72301568     0.14700
H1905       H  0.90087201  0.48956271  0.80338741     0.14800
C1906       C  0.85551580  0.46287166  0.81611115    -0.24200
H1907       H  0.93058662  0.41227189  0.69566722     0.05000
H1908       H  0.95580291  0.43174098  0.72097885     0.08200
H1909       H  0.93508951  0.44661777  0.69236058     0.08200
H1910       H  0.85481549  0.44801616  0.83305693     0.08200
H1911       H  0.83508066  0.46461984  0.80509632     0.08200
H1912       H  0.86080428  0.48245587  0.83128048     0.05000
C1913       C  0.63536086  0.10114579  0.71938289    -0.20800
C1914       C  0.60946855  0.10926218  0.71042120    -0.07400
C1915       C  0.60670746  0.13435070  0.70020032     0.13500
C1916       C  0.62964415  0.15082183  0.70031209    -0.20900
C1917       C  0.65509456  0.14303371  0.71064717    -0.07400
C1918       C  0.65819906  0.11768201  0.71952192     0.13400
C1919       C  0.68560563  0.10781865  0.72851716    -0.24200
H1920       H  0.63769074  0.08181603  0.72673878     0.14700
H1921       H  0.62755956  0.17031504  0.69332635     0.14800
C1922       C  0.57966402  0.14453344  0.69053859    -0.24200
H1923       H  0.68452823  0.08706979  0.73344007     0.05000
H1924       H  0.69342387  0.12056895  0.75126850     0.08200
H1925       H  0.70012298  0.10825354  0.70773227     0.08200
H1926       H  0.56479140  0.14463299  0.71107253     0.08200
H1927       H  0.57225498  0.13173654  0.66755187     0.08200
H1928       H  0.58117331  0.16517013  0.68529609     0.05000
C1929       C  0.71519280  0.20605895  0.59990858    -0.20800
C1930       C  0.72943335  0.23023116  0.60654829    -0.07400
C1931       C  0.73570719  0.24148122  0.63976330     0.13500
C1932       C  0.72728909  0.22833916  0.66548624    -0.20900
C1933       C  0.71298775  0.20398758  0.65914569    -0.07400
C1934       C  0.70708991  0.19258654  0.62559388     0.13400
C1935       C  0.69280780  0.16614875  0.61611163    -0.24200
H1936       H  0.71058367  0.19754327  0.57428763     0.14700
H1937       H  0.73182650  0.23747757  0.69087580     0.14800
C1938       C  0.75042239  0.26779737  0.64847475    -0.24200
H1939       H  0.69156339  0.15989614  0.58868740     0.05000
H1940       H  0.67162839  0.16753035  0.62571462     0.08200
H1941       H  0.70412681  0.15045659  0.62619226     0.08200
H1942       H  0.73930349  0.28339708  0.63799549     0.08200
H1943       H  0.77144614  0.26602310  0.63839535     0.08200
H1944       H  0.75199735  0.27440992  0.67581420     0.05000
C1945       C  0.72591589  0.23105581  0.78307776    -0.20800
C1946       C  0.71860501  0.20398404  0.77913896    -0.07400
C1947       C  0.72100909  0.19057485  0.80669649     0.13500
C1948       C  0.73009607  0.20472003  0.83729302    -0.20900
C1949       C  0.73640586  0.23196420  0.84137755    -0.07400
C1950       C  0.73460000  0.24525935  0.81375342     0.13400
C1951       C  0.74231348  0.27420939  0.81602754    -0.24200
H1952       H  0.72421522  0.24149313  0.76214549     0.14700
H1953       H  0.73163412  0.19454540  0.85849242     0.14800
C1954       C  0.71460332  0.16138540  0.80425320    -0.24200
H1955       H  0.74164350  0.28062099  0.79134346     0.05000
H1956       H  0.76334713  0.27752440  0.82583311     0.08200
H1957       H  0.72791242  0.28703637  0.83250770     0.08200
H1958       H  0.72680365  0.14966494  0.78396485     0.08200
H1959       H  0.69255766  0.15784483  0.79956077     0.08200
H1960       H  0.71952684  0.15402313  0.82766033     0.05000
C1961       C  0.81415204  0.35022632  0.64058189    -0.20800
C1962       C  0.78612370  0.34690094  0.63541644    -0.07400
C1963       C  0.76777118  0.35764492  0.66078901     0.13500
C1964       C  0.77811203  0.37106937  0.69120105    -0.20900
C1965       C  0.80627254  0.37472030  0.69628466    -0.07400
C1966       C  0.82452616  0.36430877  0.67042598     0.13400
C1967       C  0.85496311  0.36728710  0.67406953    -0.24200
H1968       H  0.82804026  0.34216862  0.62072906     0.14700
H1969       H  0.76414954  0.37889830  0.71106439     0.14800
C1970       C  0.73746533  0.35445275  0.65614497    -0.24200
H1971       H  0.86592574  0.35637470  0.65206885     0.05000
H1972       H  0.86194060  0.35926575  0.69627579     0.08200
H1973       H  0.86065080  0.38859623  0.67638144     0.08200
H1974       H  0.73215383  0.33298818  0.65027903     0.08200
H1975       H  0.73066801  0.36447906  0.63548809     0.08200
H1976       H  0.72614924  0.36338448  0.67891743     0.05000
C1977       C  0.77629884  0.34860647  0.84293531    -0.20800
C1978       C  0.79016961  0.35574493  0.87316680    -0.07400
C1979       C  0.80889189  0.37721373  0.87659979     0.13500
C1980       C  0.81511057  0.38901501  0.84878661    -0.20900
C1981       C  0.80310360  0.38015271  0.81749343    -0.07400
C1982       C  0.78220764  0.36045112  0.81519030     0.13400
C1983       C  0.76594750  0.35105771  0.78392599    -0.24200
H1984       H  0.76127084  0.33279322  0.84051434     0.14700
H1985       H  0.83017192  0.40479038  0.85145412     0.14800
C1986       C  0.82221382  0.38814713  0.90941108    -0.24200
H1987       H  0.74947107  0.33700360  0.78802076     0.05000
H1988       H  0.77926401  0.34024141  0.76414173     0.08200
H1989       H  0.75607431  0.36830008  0.77545884     0.08200
H1990       H  0.83659706  0.37334565  0.91647232     0.08200
H1991       H  0.80643689  0.39320983  0.92898386     0.08200
H1992       H  0.83405885  0.40653441  0.90813931     0.05000
C1993       C  0.59293061  0.02061472  0.54754802    -0.20800
C1994       C  0.59661404  0.99337507  0.53588423    -0.07400
C1995       C  0.59720458  0.47735385  0.55620928     0.13500
C1996       C  0.57441509  0.98350741  0.58521638    -0.20900
C1997       C  0.57066752  0.01085387  0.59749462    -0.07400
C1998       C  0.58030544  0.02973267  0.57828647     0.13400
C1999       C  0.57790675  0.05937454  0.58974388    -0.24200
H2000       H  0.60010591  0.03481835  0.53249491     0.14700
H2001       H  0.56696131  0.96871484  0.59920409     0.14800
C2002       C  0.60218830  0.44796129  0.54497496    -0.24200
H2003       H  0.58759691  0.07079951  0.57196931     0.05000
H2004       H  0.58815166  0.06519113  0.61417646     0.08200
H2005       H  0.55619053  0.06523578  0.59177469     0.08200
H2006       H  0.62437879  0.44391422  0.54369804     0.08200
H2007       H  0.59286102  0.44130485  0.52013916     0.08200
H2008       H  0.59324153  0.43580701  0.56244145     0.05000
C2009       C  0.60780520  0.98983655  0.88534821    -0.20800
C2010       C  0.59635958  0.49035453  0.91488503    -0.07400
C2011       C  0.56435678  0.99562751  0.91437706     0.13500
C2012       C  0.55298246  0.00382487  0.88637330    -0.20900
C2013       C  0.56854646  0.00582911  0.85813177    -0.07400
C2014       C  0.59635303  0.99842474  0.85744301     0.13400
C2015       C  0.61396677  0.99878383  0.82725565    -0.24200
H2016       H  0.63348917  0.48687865  0.88644012     0.14700
H2017       H  0.53166449  0.00907449  0.88671714     0.14800
C2018       C  0.54935983  0.49350101  0.94302589    -0.24200
H2019       H  0.63450811  0.99046972  0.83030987     0.05000
H2020       H  0.61679242  0.01956056  0.82313277     0.08200
H2021       H  0.60951331  0.48975816  0.80651541     0.08200
H2022       H  0.55156432  0.00900851  0.96521429     0.08200
H2023       H  0.55085255  0.47293465  0.94845987     0.08200
H2024       H  0.52419910  0.99768790  0.93771992     0.05000
C2025       C  0.65962469  0.41217715  0.93759095    -0.20800
C2026       C  0.66255688  0.43425025  0.96312533    -0.07400
C2027       C  0.68370585  0.43429013  0.98665528     0.13500
C2028       C  0.69976830  0.41154861  0.98559497    -0.20900
C2029       C  0.69522722  0.38831462  0.96213115    -0.07400
C2030       C  0.67557646  0.38914404  0.93674613     0.13400
C2031       C  0.67029169  0.36579743  0.90945417    -0.24200
H2032       H  0.64370867  0.41235933  0.91924090     0.14700
H2033       H  0.71553189  0.41174064  0.00420616     0.14800
C2034       C  0.68967293  0.45815478  0.01313808    -0.24200
H2035       H  0.65408498  0.37012918  0.89217895     0.05000
H2036       H  0.66351218  0.34841791  0.92042234     0.08200
H2037       H  0.68905171  0.36088546  0.89449516     0.08200
H2038       H  0.67318804  0.46105169  0.03198869     0.08200
H2039       H  0.69187969  0.47624586  0.00157674     0.08200
H2040       H  0.70886668  0.45564479  0.02662971     0.05000
C2041       C  0.95693357  0.08396712  0.55761293    -0.20800
C2042       C  0.92936752  0.09122038  0.56047495    -0.07400
C2043       C  0.91524231  0.08934847  0.59022730     0.13500
C2044       C  0.92896623  0.07989228  0.61601182    -0.20900
C2045       C  0.95666922  0.07317919  0.61334060    -0.07400
C2046       C  0.97088069  0.07531803  0.58370230     0.13400
C2047       C  0.00054988  0.06803984  0.57891299    -0.24200
H2048       H  0.96784693  0.08552492  0.53490144     0.14700
H2049       H  0.91815097  0.07836205  0.63879939     0.14800
C2050       C  0.88577657  0.09702286  0.59503303    -0.24200
H2051       H  0.00764315  0.06909720  0.55329994     0.05000
H2052       H  0.00389658  0.04739144  0.58334665     0.08200
H2053       H  0.50822760  0.07346059  0.59044341     0.08200
H2054       H  0.87336477  0.08604053  0.57437175     0.08200
H2055       H  0.88376214  0.11879325  0.59595635     0.08200
H2056       H  0.87756216  0.09239653  0.61878573     0.05000
C2057       C  0.92576799  0.08001879  0.87875642    -0.20800
C2058       C  0.94997190  0.06535905  0.87681698    -0.07400
C2059       C  0.96082153  0.05812482  0.90607108     0.13500
C2060       C  0.94792502  0.06696930  0.93671906    -0.20900
C2061       C  0.92421098  0.08269588  0.93907217    -0.07400
C2062       C  0.91248383  0.08846697  0.90921391     0.13400
C2063       C  0.88589371  0.10315590  0.90857339    -0.24200
H2064       H  0.91727188  0.08508417  0.85611711     0.14700
H2065       H  0.95698957  0.06206823  0.95910658     0.14800
C2066       C  0.98659522  0.04205346  0.90542559    -0.24200
H2067       H  0.87888915  0.10344154  0.88274658     0.05000
H2068       H  0.88824829  0.12421761  0.92080690     0.08200
H2069       H  0.86979798  0.09319583  0.92116531     0.08200
H2070       H  0.00346158  0.05232124  0.89456745     0.08200
H2071       H  0.98339282  0.02199796  0.89036244     0.08200
H2072       H  0.99285944  0.03924968  0.93076070     0.05000
C2073       C  0.88071392  0.17113287  0.99786676    -0.20800
C2074       C  0.87215393  0.15410690  0.51175544    -0.07400
C2075       C  0.84619563  0.15507614  0.52682720     0.13500
C2076       C  0.82949037  0.17727352  0.52608193    -0.20900
C2077       C  0.83783215  0.19433516  0.00888333    -0.07400
C2078       C  0.86454068  0.19341365  0.99608735     0.13400
C2079       C  0.87594189  0.21586972  0.98051370    -0.24200
H2080       H  0.90105359  0.17000572  0.98737082     0.14700
H2081       H  0.80921031  0.17788751  0.53668710     0.14800
C2082       C  0.83549744  0.13222539  0.54207044    -0.24200
H2083       H  0.89740166  0.21212825  0.97248104     0.05000
H2084       H  0.87434245  0.23903270  0.49867586     0.08200
H2085       H  0.86379409  0.21827076  0.95829757     0.08200
H2086       H  0.84823397  0.12971594  0.56364642     0.08200
H2087       H  0.83262858  0.10995762  0.02118485     0.08200
H2088       H  0.81424992  0.13571598  0.55106034     0.05000
C2089       C  0.91323812  0.59417490  0.02923685     0.79700
N2090       N  0.92220472  0.58567143  0.49894192    -0.78600
C2091       C  0.91302678  0.59489834  0.47172481     0.82100
N2092       N  0.89559059  0.61571242  0.47612767    -0.78600
C2093       C  0.88688096  0.62538021  0.00675652     0.82200
N2094       N  0.89561308  0.61510288  0.03354559    -0.80300
C2095       C  0.60651312  0.98323041  0.44509692     0.79700
N2096       N  0.62697952  0.96488950  0.44085159    -0.78600
C2097       C  0.63848816  0.95685894  0.46786693     0.82100
N2098       N  0.62874328  0.96420545  0.99686475    -0.78600
C2099       C  0.60818575  0.98202741  0.00110423     0.82200
N2100       N  0.60497027  0.49617812  0.47680822    -0.80300
Zr2101     Zr  0.73887053  0.80627548  0.43329576     2.17500
O2102       O  0.69729148  0.80112839  0.40032801    -0.51900
O2103       O  0.76336629  0.83213316  0.39841895    -0.75100
O2104       O  0.71344828  0.84798400  0.44238538    -0.81900
O2105       O  0.76258531  0.73784730  0.38993004    -0.83600
O2106       O  0.71908246  0.86450215  0.99591477    -0.79200
O2107       O  0.73761181  0.77374730  0.38218043    -0.90900
O2108       O  0.80564400  0.84040474  0.41958364    -0.76800
O2109       O  0.76576434  0.83651076  0.47094354    -0.86300
O2110       O  0.78393011  0.78889038  0.42950972    -0.86000
O2111       O  0.71769666  0.80748356  0.48672078    -0.72800
O2112       O  0.73554798  0.76295079  0.44843927    -0.84900
Zr2113     Zr  0.78856390  0.77559664  0.03616854     2.26400
Zr2114     Zr  0.74565341  0.83515080  0.02434451     2.06300
Zr2115     Zr  0.78102411  0.74614649  0.44562113     2.10000
Zr2116     Zr  0.81054684  0.81886463  0.46754345     1.78800
O2117       O  0.76460295  0.70050375  0.43139100    -0.93700
O2118       O  0.82170525  0.86506339  0.49005676    -0.41500
O2119       O  0.80901287  0.77562046  0.48318659    -0.78100
O2120       O  0.79145386  0.81896066  0.02098990    -0.96800
O2121       O  0.74329875  0.79244341  0.04053048    -0.90100
O2122       O  0.76173157  0.74501894  0.99893336    -0.93000
C2123       C  0.78717251  0.84245105  0.39808818     1.00800
C2124       C  0.74739710  0.75038403  0.37228398     1.13700
C2125       C  0.70965327  0.86664909  0.46742924     1.01900
O2126       O  0.76090048  0.88091008  0.04166703    -0.95100
O2127       O  0.76359622  0.84283931  0.08059237    -0.90900
O2128       O  0.78936680  0.80715097  0.08753710    -0.84000
C2129       C  0.77924946  0.83027546  0.09771383     1.11100
O2130       O  0.67316437  0.76123214  0.47200759    -0.97100
Zr2131     Zr  0.71667358  0.76214341  0.00278432     1.88900
O2132       O  0.76408675  0.75179126  0.07335119    -0.73800
O2133       O  0.70447844  0.84326066  0.05779288    -0.53000
O2134       O  0.67861930  0.77956297  0.03821707    -0.97700
O2135       O  0.70321200  0.71784208  0.48431248    -0.54900
O2136       O  0.72133112  0.74302212  0.05296988    -0.74300
C2137       C  0.74009087  0.74210413  0.07459129     0.98100
O2138       O  0.83314278  0.78013380  0.06312316    -0.63100
O2139       O  0.82135660  0.73737664  0.41066031    -0.57900
O2140       O  0.81363121  0.73401921  0.02832043    -0.94600
O2141       O  0.81002765  0.71813129  0.47295235    -0.93000
O2142       O  0.84710825  0.80264460  0.42909716    -0.93400
O2143       O  0.85559930  0.82225279  0.49284954    -0.92100
C2144       C  0.81837303  0.71751826  0.50261306     1.16900
H2145       H  0.79098827  0.78736746  0.40715118     0.32900
H2146       H  0.80298161  0.83045777  0.03644876     0.43700
H2147       H  0.76207673  0.72748402  0.00494722     0.37200
H2148       H  0.69946930  0.81452593  0.48660887     0.33700
H2149       H  0.83786114  0.86915110  0.47728567     0.25500
H2150       H  0.70660369  0.83224549  0.07540220     0.31400
H2151       H  0.68652495  0.78460705  0.06074352     0.37300
H2152       H  0.85019552  0.78409717  0.43243635     0.31800
H2153       H  0.82056326  0.71804845  0.40181859     0.30700
H2154       H  0.77678761  0.69199353  0.41331777     0.32400
H2155       H  0.71591629  0.70549004  0.99959413     0.31300
H2156       H  0.85527107  0.80868486  0.00707156     0.35300
H2157       H  0.84621704  0.77181905  0.04596933     0.28100
H2158       H  0.69789575  0.81543946  0.38671174     0.32300
H2159       H  0.66081541  0.75083424  0.48411198     0.35100
H2160       H  0.81780453  0.74597754  0.39109321     0.27800
H2161       H  0.83758932  0.79934584  0.06586022     0.40600
H2162       H  0.78101627  0.87981588  0.04177033     0.30700
H2163       H  0.80685405  0.87557939  0.48229037     0.38300
H2164       H  0.71092204  0.71317085  0.46162901     0.30200
H2165       H  0.70645709  0.86182202  0.06962814     0.30200
H2166       H  0.68235910  0.80608483  0.41648859     0.30500
C2167       C  0.71092682  0.69112184  0.18592228     0.79700
N2168       N  0.72154552  0.70133836  0.21614137    -0.78600
C2169       C  0.71351859  0.69239605  0.24408615     0.82100
N2170       N  0.69445973  0.67281717  0.24163964    -0.78600
C2171       C  0.68382599  0.66222292  0.21153695     0.82200
N2172       N  0.69169256  0.67179363  0.18395967    -0.80300
C2173       C  0.81720530  0.88797024  0.28230532     0.79700
N2174       N  0.80729994  0.87771611  0.25180052    -0.78600
C2175       C  0.81822640  0.88459842  0.22400592     0.82100
N2176       N  0.83941904  0.90186969  0.22664072    -0.78600
C2177       C  0.84956601  0.91242043  0.25697958     0.82200
N2178       N  0.83852927  0.90520997  0.28457775    -0.80300
Zr2179     Zr  0.52918249  0.56526227  0.18755941     2.17500
O2180       O  0.52523693  0.60639520  0.16515921    -0.51900
O2181       O  0.55270817  0.54165008  0.13896359    -0.75100
O2182       O  0.57214604  0.58993266  0.19342515    -0.81900
O2183       O  0.95288102  0.54555978  0.15862171    -0.83600
O2184       O  0.59238595  0.58214293  0.24089069    -0.79200
O2185       O  0.99151836  0.56637655  0.14621466    -0.90900
O2186       O  0.56039110  0.49981536  0.14825204    -0.76800
O2187       O  0.55984316  0.53690399  0.20976640    -0.86300
O2188       O  0.50946940  0.52189237  0.17712883    -0.86000
O2189       O  0.53290423  0.58402625  0.24548241    -0.72800
O2190       O  0.98286249  0.56814460  0.21617875    -0.84900
Zr2191     Zr  0.50104795  0.51474953  0.28640628     2.26400
Zr2192     Zr  0.56282858  0.55449277  0.26776603     2.06300
Zr2193     Zr  0.96294543  0.52467640  0.20631284     2.10000
Zr2194     Zr  0.53568888  0.99310706  0.19979415     1.78800
O2195       O  0.91681579  0.54212182  0.21335797    -0.93700
O2196       O  0.58250294  0.97856157  0.20466647    -0.41500
O2197       O  0.99246384  0.49482269  0.22822165    -0.78100
O2198       O  0.54410526  0.51044550  0.25821572    -0.96800
O2199       O  0.52047106  0.55809848  0.29678797    -0.90100
O2200       O  0.96665176  0.54140706  0.26452400    -0.93000
C2201       C  0.56234420  0.51812082  0.13042249     1.00800
C2202       C  0.96676205  0.55897292  0.14052584     1.13700
C2203       C  0.59173971  0.59280142  0.21463787     1.04500
O2204       O  0.60924121  0.53760732  0.26414239    -0.95100
O2205       O  0.57305594  0.53494528  0.31636835    -0.90900
O2206       O  0.53595334  0.51129565  0.32743353    -0.84000
C2207       C  0.56039437  0.51979480  0.33334641     1.11100
O2208       O  0.98340776  0.62920918  0.26220096    -0.97100
Zr2209     Zr  0.98710107  0.58423668  0.27464966     1.88900
O2210       O  0.97396152  0.53589694  0.33523854    -0.73800
O2211       O  0.57309060  0.59289736  0.31033675    -0.53000
O2212       O  0.51388109  0.61828593  0.31524698    -0.97700
O2213       O  0.94017851  0.59865660  0.26992373    -0.54900
O2214       O  0.96691107  0.57838682  0.32714334    -0.74300
C2215       C  0.96486677  0.55961124  0.34430272     0.98100
O2216       O  0.49381817  0.97255249  0.30446740    -0.63100
O2217       O  0.94999670  0.99320252  0.16250805    -0.57900
O2218       O  0.95810984  0.98800834  0.27932517    -0.94600
O2219       O  0.93688402  0.49252642  0.23025440    -0.93000
O2220       O  0.51455787  0.95868026  0.15892215    -0.93400
O2221       O  0.53817720  0.94891436  0.21474332    -0.92100
C2222       C  0.94085899  0.98255623  0.25552433     1.16900
H2223       H  0.50680707  0.51575191  0.15359128     0.32900
H2224       H  0.55581997  0.49837996  0.26745118     0.43700
H2225       H  0.94899707  0.54161918  0.27500603     0.37200
H2226       H  0.54062687  0.60173524  0.24819490     0.33700
H2227       H  0.58550670  0.96490270  0.18460612     0.25500
H2228       H  0.56480849  0.58870691  0.33097959     0.31400
H2229       H  0.51554543  0.60956785  0.33506530     0.37300
H2230       H  0.49601641  0.95660014  0.16767528     0.31800
H2231       H  0.93085374  0.99784524  0.15858850     0.30700
H2232       H  0.90537633  0.52851955  0.19950115     0.32400
H2233       H  0.92931820  0.58838025  0.28381915     0.31300
H2234       H  0.53035784  0.95110886  0.23743279     0.35300
H2235       H  0.01351498  0.96495883  0.30386606     0.28100
H2236       H  0.54032986  0.60590587  0.14897824     0.32300
H2237       H  0.97389766  0.63969524  0.28152805     0.35100
H2238       H  0.95991648  0.99662350  0.14251969     0.27800
H2239       H  0.49118699  0.97690598  0.32887449     0.40600
H2240       H  0.62017135  0.55175885  0.27781821     0.30700
H2241       H  0.59800548  0.49642430  0.20246452     0.38300
H2242       H  0.93485602  0.59124371  0.24677946     0.30200
H2243       H  0.59294564  0.59185172  0.31400329     0.30200
H2244       H  0.52996036  0.62079787  0.18379940     0.30500
C2245       C  0.89364950  0.92386489  0.23410853    -0.20800
C2246       C  0.87400019  0.92958589  0.25932224    -0.07400
C2247       C  0.87804996  0.95153955  0.28533373     0.13500
C2248       C  0.90100389  0.96783603  0.28440025    -0.20900
C2249       C  0.91969639  0.96274708  0.25816768    -0.07400
C2250       C  0.91647552  0.94012117  0.23323090     0.13400
C2251       C  0.93726930  0.93283705  0.20596116    -0.24200
H2252       H  0.89112609  0.90658181  0.21484325     0.14700
H2253       H  0.90381990  0.98526356  0.30346956     0.14800
C2254       C  0.85782947  0.95874076  0.31322907    -0.24200
H2255       H  0.93210718  0.91378203  0.18949585     0.05000
H2256       H  0.95756366  0.93056013  0.21709382     0.08200
H2257       H  0.93834973  0.94850477  0.19021517     0.08200
H2258       H  0.85701157  0.94280386  0.32862873     0.08200
H2259       H  0.83736264  0.96156648  0.30286573     0.08200
H2260       H  0.86352831  0.97749988  0.32996505     0.05000
C2261       C  0.64133126  0.60135066  0.21839149    -0.20800
C2262       C  0.61547654  0.60956951  0.20937418    -0.07400
C2263       C  0.61281640  0.63456733  0.19901201     0.13500
C2264       C  0.63581787  0.65090505  0.19896562    -0.20900
C2265       C  0.66122624  0.64308329  0.20940426    -0.07400
C2266       C  0.66424168  0.61781226  0.21850990     0.13400
C2267       C  0.69159301  0.60806163  0.22788820    -0.24200
H2268       H  0.64352222  0.58208776  0.22597900     0.14700
H2269       H  0.63381027  0.67034875  0.19182114     0.14800
C2270       C  0.58576853  0.64479810  0.18949370    -0.24200
H2271       H  0.69043022  0.58745212  0.23328652     0.05000
H2272       H  0.69939903  0.62113171  0.25044578     0.08200
H2273       H  0.70617333  0.60816555  0.20708893     0.08200
H2274       H  0.57096355  0.64494056  0.21010938     0.08200
H2275       H  0.57828610  0.63197611  0.16657889     0.08200
H2276       H  0.58729977  0.66541935  0.18421098     0.05000
C2277       C  0.72153503  0.70364808  0.09685263    -0.20800
C2278       C  0.73347036  0.72899396  0.10302478    -0.07400
C2279       C  0.73812588  0.74165990  0.13607776     0.13500
C2280       C  0.73065933  0.72858694  0.16221091    -0.20900
C2281       C  0.71862955  0.70309012  0.15638518    -0.07400
C2282       C  0.71419192  0.69035628  0.12298884     0.13400
C2283       C  0.70228832  0.66273599  0.11422170    -0.24200
H2284       H  0.71811335  0.69413314  0.07129962     0.14700
H2285       H  0.73392680  0.73874123  0.18749091     0.14800
C2286       C  0.74993705  0.76939883  0.14405786    -0.24200
H2287       H  0.70213556  0.65559068  0.08691068     0.05000
H2288       H  0.68086839  0.66265620  0.12284484     0.08200
H2289       H  0.71459085  0.64848003  0.12573130     0.08200
H2290       H  0.73727941  0.78339888  0.13255516     0.08200
H2291       H  0.77107655  0.76954559  0.13451165     0.08200
H2292       H  0.75064314  0.77681543  0.17129469     0.05000
C2293       C  0.72886521  0.73385426  0.28039604    -0.20800
C2294       C  0.72313506  0.70643111  0.27697097    -0.07400
C2295       C  0.72649265  0.69357546  0.30482060     0.13500
C2296       C  0.73506125  0.70850864  0.33516845    -0.20900
C2297       C  0.73979274  0.73606041  0.33885236    -0.07400
C2298       C  0.73690507  0.74889045  0.31094673     0.13400
C2299       C  0.74277110  0.77819386  0.31281888    -0.24200
H2300       H  0.72640656  0.74383492  0.25915892     0.14700
H2301       H  0.73738506  0.69864808  0.35654030     0.14800
C2302       C  0.72155964  0.66415904  0.30293018    -0.24200
H2303       H  0.74120071  0.78435714  0.28804566     0.05000
H2304       H  0.76373251  0.78279416  0.32228271     0.08200
H2305       H  0.72789202  0.79023902  0.32946452     0.08200
H2306       H  0.73402533  0.65276632  0.28264976     0.08200
H2307       H  0.69965848  0.65957735  0.29847369     0.08200
H2308       H  0.72714961  0.65732861  0.32647591     0.05000
C2309       C  0.81611120  0.84414258  0.13735635    -0.20800
C2310       C  0.78815860  0.84409261  0.13052448    -0.07400
C2311       C  0.77001480  0.85762272  0.15445500     0.13500
C2312       C  0.78044729  0.87089508  0.18483858    -0.20900
C2313       C  0.80852125  0.87146706  0.19123951    -0.07400
C2314       C  0.82659234  0.85784989  0.16727777     0.13400
C2315       C  0.85682166  0.85703320  0.17333578    -0.24200
H2316       H  0.82993850  0.83379597  0.11881499     0.14700
H2317       H  0.76669201  0.88102190  0.20363322     0.14800
C2318       C  0.73974598  0.85745433  0.14850505    -0.24200
H2319       H  0.86750026  0.84386081  0.15282836     0.05000
H2320       H  0.86086722  0.84940394  0.19678432     0.08200
H2321       H  0.86553489  0.87727894  0.17490662     0.08200
H2322       H  0.73223271  0.83660851  0.14278607     0.08200
H2323       H  0.73501162  0.86785559  0.12743486     0.08200
H2324       H  0.72854735  0.86778441  0.17065884     0.05000
C2325       C  0.77708343  0.85221114  0.34184611    -0.20800
C2326       C  0.79389276  0.85663764  0.37015073    -0.07400
C2327       C  0.81680623  0.87365376  0.37032995     0.13500
C2328       C  0.82305613  0.88408890  0.34163915    -0.20900
C2329       C  0.80720471  0.87832236  0.31258772    -0.07400
C2330       C  0.78323718  0.86278704  0.31320005     0.13400
C2331       C  0.76372603  0.85705303  0.28424561    -0.24200
H2332       H  0.75922933  0.83965995  0.34161947     0.14700
H2333       H  0.84111036  0.89634260  0.34183025     0.14800
C2334       C  0.83490045  0.88133342  0.40038067    -0.24200
H2335       H  0.74515549  0.84650063  0.29061416     0.05000
H2336       H  0.77348932  0.84398481  0.26294372     0.08200
H2337       H  0.75705698  0.87600075  0.27682885     0.08200
H2338       H  0.84616854  0.86369361  0.40569259     0.08200
H2339       H  0.82244106  0.89010022  0.42223941     0.08200
H2340       H  0.85037859  0.89642106  0.39646700     0.05000
C2341       C  0.59829952  0.52001579  0.04739642    -0.20800
C2342       C  0.60068687  0.49270051  0.03518825    -0.07400
C2343       C  0.58613177  0.97204893  0.05296343     0.13500
C2344       C  0.57855908  0.48324594  0.08487561    -0.20900
C2345       C  0.57596705  0.51062805  0.09754626    -0.07400
C2346       C  0.58626952  0.52933648  0.07849941     0.13400
C2347       C  0.58521311  0.55898669  0.09060180    -0.24200
H2348       H  0.60600621  0.53410176  0.03249818     0.14700
H2349       H  0.57059047  0.46865760  0.09884585     0.14800
C2350       C  0.58679505  0.94247741  0.04002081    -0.24200
H2351       H  0.59560113  0.57023401  0.07314027     0.05000
H2352       H  0.59553478  0.56399772  0.11510094     0.08200
H2353       H  0.56376051  0.56581703  0.09275453     0.08200
H2354       H  0.60815433  0.93545185  0.03714671     0.08200
H2355       H  0.57625235  0.93807471  0.01561102     0.08200
H2356       H  0.57648391  0.93094162  0.05722767     0.05000
C2357       C  0.61512835  0.49830687  0.38938877    -0.20800
C2358       C  0.59315690  0.99186497  0.41629077    -0.07400
C2359       C  0.57086472  0.49745038  0.41600565     0.13500
C2360       C  0.55899255  0.50607680  0.38857056    -0.20900
C2361       C  0.57471671  0.51125403  0.36164950    -0.07400
C2362       C  0.60321162  0.50685342  0.36183197     0.13400
C2363       C  0.62123428  0.51031125  0.33293028    -0.24200
H2364       H  0.63073172  0.99078554  0.38906113     0.14700
H2365       H  0.53715213  0.50884236  0.38821256     0.14800
C2366       C  0.54598468  0.99322618  0.44388975    -0.24200
H2367       H  0.64247827  0.50394918  0.33650216     0.05000
H2368       H  0.62198105  0.53160726  0.33034684     0.08200
H2369       H  0.60814143  0.99518021  0.30910535     0.08200
H2370       H  0.55589587  0.50522540  0.46661993     0.08200
H2371       H  0.54812020  0.97263857  0.44906532     0.08200
H2372       H  0.53059518  0.49241424  0.43671620     0.05000
C2373       C  0.65722618  0.91376597  0.43874061    -0.20800
C2374       C  0.65954086  0.93579959  0.46443252    -0.07400
C2375       C  0.68050798  0.93616607  0.48827350     0.13500
C2376       C  0.69705430  0.91375392  0.48729714    -0.20900
C2377       C  0.69342411  0.89065477  0.46331917    -0.07400
C2378       C  0.67386006  0.89117228  0.43778217     0.13400
C2379       C  0.66947703  0.86791702  0.41012214    -0.24200
H2380       H  0.64140840  0.91367857  0.42020954     0.14700
H2381       H  0.71265156  0.91416470  0.50615484     0.14800
C2382       C  0.68591551  0.96014178  0.51482503    -0.24200
H2383       H  0.65310273  0.87184180  0.39284480     0.05000
H2384       H  0.66340911  0.85013898  0.42072370     0.08200
H2385       H  0.68841002  0.86391567  0.39525904     0.08200
H2386       H  0.66929456  0.96277227  0.53349961     0.08200
H2387       H  0.68788106  0.97826195  0.50326810     0.08200
H2388       H  0.70507759  0.95797693  0.52853465     0.05000
C2389       C  0.95280659  0.57526953  0.05459702    -0.20800
C2390       C  0.92579850  0.58445634  0.05807688    -0.07400
C2391       C  0.91205236  0.58401899  0.08852216     0.13500
C2392       C  0.92579962  0.57494509  0.11459196    -0.20900
C2393       C  0.95309804  0.56686771  0.11143202    -0.07400
C2394       C  0.96667675  0.56665647  0.08078752     0.13400
C2395       C  0.99556849  0.55690595  0.07508918    -0.24200
H2396       H  0.96350617  0.57538901  0.03136776     0.14700
H2397       H  0.91537524  0.57490445  0.13802992     0.14800
C2398       C  0.88299653  0.59293842  0.09395727    -0.24200
H2399       H  0.00206483  0.55620653  0.04885452     0.05000
H2400       H  0.99741742  0.53648578  0.08092710     0.08200
H2401       H  0.51145827  0.58854870  0.10080767     0.08200
H2402       H  0.86987715  0.58223028  0.07382718     0.08200
H2403       H  0.88190790  0.61472009  0.09455773     0.08200
H2404       H  0.87490252  0.58896713  0.11808106     0.05000
C2405       C  0.92594246  0.57972664  0.37774067    -0.20800
C2406       C  0.95075633  0.56611586  0.37662802    -0.07400
C2407       C  0.96222420  0.56060724  0.40639999     0.13500
C2408       C  0.94906451  0.56978207  0.43670621    -0.20900
C2409       C  0.92452619  0.58422172  0.43821732    -0.07400
C2410       C  0.91245640  0.58861259  0.40794343     0.13400
C2411       C  0.88532848  0.60222364  0.40665988    -0.24200
H2412       H  0.91712322  0.58357341  0.35466193     0.14700
H2413       H  0.95853163  0.56612277  0.45947180     0.14800
C2414       C  0.98884355  0.54599544  0.40656451    -0.24200
H2415       H  0.87831008  0.60170793  0.38066705     0.05000
H2416       H  0.88689301  0.62349921  0.41830604     0.08200
H2417       H  0.86964747  0.59200976  0.41957126     0.08200
H2418       H  0.00502532  0.55660321  0.39495776     0.08200
H2419       H  0.98658315  0.52544828  0.39253588     0.08200
H2420       H  0.99547428  0.54447182  0.43220622     0.05000
C2421       C  0.87821698  0.67071307  0.49172868    -0.20800
C2422       C  0.87047847  0.64994014  0.01042846    -0.07400
C2423       C  0.84502274  0.65283385  0.02684794     0.13500
C2424       C  0.82928977  0.67563753  0.02536750    -0.20900
C2425       C  0.83690529  0.69575127  0.50676885    -0.07400
C2426       C  0.86205299  0.69293414  0.48988136     0.13400
C2427       C  0.87201705  0.71348676  0.47008259    -0.24200
H2428       H  0.89732320  0.66831680  0.47822298     0.14700
H2429       H  0.80943305  0.67778566  0.03713352     0.14800
C2430       C  0.83370844  0.63143399  0.04422847    -0.24200
H2431       H  0.89271802  0.70876634  0.45981939     0.05000
H2432       H  0.87552472  0.73306493  0.99007511     0.08200
H2433       H  0.85818952  0.71433364  0.44883277     0.08200
H2434       H  0.84689953  0.62918912  0.06549987     0.08200
H2435       H  0.83404520  0.61412367  0.53138615     0.08200
H2436       H  0.81292573  0.63638249  0.05410780     0.05000
C2437       C  0.91391160  0.59661724  0.53006102     0.79700
N2438       N  0.92214951  0.58405438  0.99805498    -0.78600
C2439       C  0.91369104  0.59425638  0.97119811     0.82100
N2440       N  0.89630905  0.61507241  0.97602278    -0.78600
C2441       C  0.88675805  0.62685065  0.50690599     0.82200
N2442       N  0.89616613  0.61744136  0.53406101    -0.80300
C2443       C  0.60594159  0.98042274  0.94317738     0.79700
N2444       N  0.62676120  0.96247594  0.93905049    -0.78600
C2445       C  0.63852813  0.95468505  0.96607280     0.82100
N2446       N  0.62879900  0.96662526  0.49860418    -0.78600
C2447       C  0.60867016  0.98486978  0.50292284     0.82200
N2448       N  0.60120925  0.49215878  0.97516817    -0.80300
Zr2449     Zr  0.73824726  0.80398518  0.93346344     2.17500
O2450       O  0.69563203  0.79744784  0.90264006    -0.51900
O2451       O  0.76120960  0.83111297  0.89882662    -0.75100
O2452       O  0.71245421  0.84539114  0.94205295    -0.81900
O2453       O  0.76388673  0.73640944  0.88927455    -0.83600
O2454       O  0.71915385  0.86620127  0.49666734    -0.79200
O2455       O  0.73779666  0.77172096  0.88223243    -0.90900
O2456       O  0.80387733  0.83919379  0.91895018    -0.76800
O2457       O  0.76507619  0.83462164  0.97061380    -0.86300
O2458       O  0.78355796  0.78714882  0.92902474    -0.86000
O2459       O  0.71762995  0.80533740  0.98714588    -0.72800
O2460       O  0.73585459  0.76059894  0.94860085    -0.84900
Zr2461     Zr  0.78789470  0.77665297  0.53638987     2.26400
Zr2462     Zr  0.74589528  0.83675676  0.52447673     2.06300
Zr2463     Zr  0.78157550  0.74442044  0.94547543     2.10000
Zr2464     Zr  0.81005245  0.81752221  0.96664723     1.78800
O2465       O  0.76476992  0.69891255  0.93111545    -0.93700
O2466       O  0.82227193  0.86380763  0.98698576    -0.41500
O2467       O  0.80923796  0.77446929  0.98271125    -0.78100
O2468       O  0.79155120  0.82013614  0.52165193    -0.96800
O2469       O  0.74289046  0.79404944  0.54049808    -0.90100
O2470       O  0.76083563  0.74663472  0.49881014    -0.93000
C2471       C  0.78489496  0.84165460  0.89823491     1.00800
C2472       C  0.74829299  0.74875991  0.87180772     1.13700
C2473       C  0.70910197  0.86443128  0.96676489     1.01900
O2474       O  0.76083153  0.88263752  0.54167651    -0.95100
O2475       O  0.76356991  0.84440127  0.58076608    -0.90900
O2476       O  0.78825162  0.80807226  0.58790174    -0.84000
C2477       C  0.77857167  0.83138928  0.59805589     1.11100
O2478       O  0.67435144  0.75937780  0.97116403    -0.97100
Zr2479     Zr  0.71603517  0.76430463  0.50246740     1.88900
O2480       O  0.76279121  0.75255160  0.57263952    -0.73800
O2481       O  0.70510519  0.84462316  0.55869047    -0.53000
O2482       O  0.67926468  0.78268989  0.53949838    -0.97700
O2483       O  0.70439261  0.71537060  0.98598165    -0.54900
O2484       O  0.72008550  0.74438675  0.55214353    -0.74300
C2485       C  0.73869838  0.74311839  0.57385748     0.98100
O2486       O  0.83188695  0.78043025  0.56476512    -0.63100
O2487       O  0.82205870  0.73445597  0.91108940    -0.57900
O2488       O  0.81235882  0.73471034  0.52838140    -0.94600
O2489       O  0.81156411  0.71721780  0.97291498    -0.93000
O2490       O  0.84622211  0.79955675  0.92852917    -0.93400
O2491       O  0.85461098  0.82274652  0.99308925    -0.92100
C2492       C  0.81988372  0.71682454  0.00265346     1.16900
H2493       H  0.79039575  0.78574753  0.90657941     0.32900
H2494       H  0.80302896  0.83146652  0.53735329     0.43700
H2495       H  0.76086623  0.72900012  0.50451341     0.37200
H2496       H  0.69931270  0.81218164  0.98715401     0.33700
H2497       H  0.83627693  0.86811894  0.97125812     0.25500
H2498       H  0.70800351  0.83442079  0.57698150     0.31400
H2499       H  0.68767241  0.78698494  0.56183761     0.37300
H2500       H  0.85170576  0.78284012  0.93597743     0.31800
H2501       H  0.81829121  0.71681853  0.89743232     0.30700
H2502       H  0.76179598  0.69294811  0.95270190     0.32400
H2503       H  0.71427143  0.70759377  0.49797439     0.31300
H2504       H  0.85221997  0.82284427  0.51689855     0.35300
H2505       H  0.84515293  0.77156196  0.54822470     0.28100
H2506       H  0.69558004  0.81111748  0.88808440     0.32300
H2507       H  0.66321699  0.74558281  0.97925025     0.35100
H2508       H  0.82154726  0.74701020  0.89508088     0.27800
H2509       H  0.83686358  0.79950272  0.56720521     0.40600
H2510       H  0.78095311  0.88168682  0.54177871     0.30700
H2511       H  0.80610254  0.87416976  0.98243004     0.38300
H2512       H  0.71167810  0.71048683  0.96311568     0.30200
H2513       H  0.70657649  0.86350334  0.56953165     0.30200
H2514       H  0.68120082  0.80294588  0.91933436     0.30500
C2515       C  0.70890835  0.69215471  0.68560847     0.79700
N2516       N  0.72059240  0.70174709  0.71539885    -0.78600
C2517       C  0.71367065  0.69223306  0.74331856     0.82100
N2518       N  0.69449508  0.67279368  0.74152066    -0.78600
C2519       C  0.68265890  0.66290522  0.71184901     0.82200
N2520       N  0.68961392  0.67292005  0.68423406    -0.80300
C2521       C  0.81536311  0.88795085  0.78346321     0.79700
N2522       N  0.80564195  0.87766624  0.75290282    -0.78600
C2523       C  0.81697399  0.88416490  0.72518060     0.82100
N2524       N  0.83828461  0.90121733  0.72790426    -0.78600
C2525       C  0.84840958  0.91186138  0.75821059     0.82200
N2526       N  0.83698519  0.90497021  0.78587076    -0.80300
Zr2527     Zr  0.52809838  0.56568826  0.68675235     2.17500
O2528       O  0.52376455  0.60667404  0.66400416    -0.51900
O2529       O  0.55248773  0.54260714  0.63863071    -0.75100
O2530       O  0.57064190  0.59106542  0.69373840    -0.81900
O2531       O  0.95574337  0.54714863  0.65759769    -0.83600
O2532       O  0.59177067  0.58090885  0.73951120    -0.79200
O2533       O  0.99419987  0.56851403  0.64591790    -0.90900
O2534       O  0.56077454  0.50084814  0.64769034    -0.76800
O2535       O  0.55848613  0.53644983  0.70810105    -0.86300
O2536       O  0.50756005  0.52272740  0.67598546    -0.86000
O2537       O  0.53223638  0.58366620  0.74494598    -0.72800
O2538       O  0.98478442  0.56968360  0.71599561    -0.84900
Zr2539     Zr  0.49938676  0.51458887  0.78468188     2.26400
Zr2540     Zr  0.56188976  0.55332621  0.76635581     2.06300
Zr2541     Zr  0.96509331  0.52614610  0.70558042     2.10000
Zr2542     Zr  0.53174582  0.99290878  0.69764394     1.78800
O2543       O  0.92011134  0.54576100  0.71595328    -0.93700
O2544       O  0.57757467  0.97534651  0.70061104    -0.41500
O2545       O  0.99486289  0.49639974  0.72742764    -0.78100
O2546       O  0.54235480  0.50959010  0.75606996    -0.96800
O2547       O  0.51955106  0.55767907  0.79558573    -0.90100
O2548       O  0.96839632  0.54298957  0.76374365    -0.93000
C2549       C  0.56282969  0.51938683  0.63017384     1.00800
C2550       C  0.96948727  0.56108094  0.63994631     1.13700
C2551       C  0.59062687  0.59293292  0.71437769     1.04500
O2552       O  0.60843161  0.53685845  0.76355255    -0.95100
O2553       O  0.57258265  0.53217832  0.81377626    -0.90900
O2554       O  0.53442591  0.51030608  0.82541154    -0.84000
C2555       C  0.55928889  0.51756379  0.83092769     1.11100
O2556       O  0.98815305  0.63144073  0.76351556    -0.97100
Zr2557     Zr  0.98885722  0.58589916  0.77452262     1.88900
O2558       O  0.97609393  0.53739298  0.83491992    -0.73800
O2559       O  0.57219127  0.59073567  0.81032630    -0.53000
O2560       O  0.51150232  0.61969943  0.81481258    -0.97700
O2561       O  0.94297324  0.60306991  0.77007669    -0.54900
O2562       O  0.96743001  0.57939466  0.82602627    -0.74300
C2563       C  0.96623109  0.56084581  0.84362742     0.98100
O2564       O  0.49246966  0.96974189  0.80092651    -0.63100
O2565       O  0.95328227  0.99217666  0.65853893    -0.57900
O2566       O  0.95507868  0.98969566  0.77796231    -0.94600
O2567       O  0.93931398  0.49296615  0.72847401    -0.93000
O2568       O  0.50832158  0.96176017  0.65486069    -0.93400
O2569       O  0.53317152  0.94775152  0.70969015    -0.92100
C2570       C  0.93842765  0.98390740  0.75352344     1.16900
H2571       H  0.50485253  0.51692205  0.65239108     0.32900
H2572       H  0.55378107  0.49708837  0.76492788     0.43700
H2573       H  0.95068388  0.54313258  0.77407693     0.37200
H2574       H  0.54020660  0.60127710  0.74795051     0.33700
H2575       H  0.58135020  0.96549921  0.67796287     0.25500
H2576       H  0.59121259  0.58768596  0.81671489     0.31400
H2577       H  0.49667357  0.62758867  0.82975978     0.37300
H2578       H  0.49094899  0.95774408  0.66531919     0.31800
H2579       H  0.93409252  0.99590409  0.65358398     0.30700
H2580       H  0.90821599  0.53499717  0.69920142     0.32400
H2581       H  0.93094319  0.59072683  0.77966324     0.31300
H2582       H  0.51653025  0.94615781  0.72293165     0.35300
H2583       H  0.99411926  0.95719785  0.77663160     0.28100
H2584       H  0.53889076  0.60630220  0.64786800     0.32300
H2585       H  0.97959575  0.64223379  0.78333905     0.35100
H2586       H  0.96361328  0.99621152  0.63914635     0.27800
H2587       H  0.49115366  0.97326270  0.82552630     0.40600
H2588       H  0.60666250  0.51743627  0.75581609     0.30700
H2589       H  0.59553608  0.49028885  0.69923582     0.38300
H2590       H  0.93890472  0.59947968  0.74594490     0.30200
H2591       H  0.57323877  0.60643214  0.79904066     0.30200
H2592       H  0.52830768  0.62118949  0.68259587     0.30500
C2593       C  0.89055156  0.92538871  0.73263886    -0.20800
C2594       C  0.87275828  0.92935571  0.76002101    -0.07400
C2595       C  0.87823326  0.95029029  0.78691704     0.13500
C2596       C  0.90020957  0.96758974  0.78446740    -0.20900
C2597       C  0.91683817  0.96430537  0.75609889    -0.07400
C2598       C  0.91247299  0.94244256  0.73032758     0.13400
C2599       C  0.93119643  0.93653825  0.70062219    -0.24200
H2600       H  0.88725769  0.90884210  0.71260530     0.14700
H2601       H  0.90407052  0.98415174  0.80443033     0.14800
C2602       C  0.86088260  0.95505807  0.81783212    -0.24200
H2603       H  0.92591597  0.91743757  0.68432504     0.05000
H2604       H  0.95252068  0.93505748  0.70911712     0.08200
H2605       H  0.92966403  0.95245178  0.68531187     0.08200
H2606       H  0.86247344  0.93781730  0.83103438     0.08200
H2607       H  0.83935044  0.95805398  0.81115129     0.08200
H2608       H  0.86756351  0.97299910  0.83544313     0.05000
C2609       C  0.64030501  0.60149048  0.71695657    -0.20800
C2610       C  0.61416229  0.61022726  0.70982607    -0.07400
C2611       C  0.61107433  0.63608568  0.70202287     0.13500
C2612       C  0.63404666  0.65250985  0.70206029    -0.20900
C2613       C  0.65984815  0.64399227  0.71030409    -0.07400
C2614       C  0.66316989  0.61807890  0.71733219     0.13400
C2615       C  0.69079808  0.60779654  0.72477156    -0.24200
H2616       H  0.64278410  0.58166411  0.72279169     0.14700
H2617       H  0.63176690  0.67247959  0.69660225     0.14800
C2618       C  0.58363329  0.64705783  0.69520654    -0.24200
H2619       H  0.68984592  0.58678613  0.72873042     0.05000
H2620       H  0.69919305  0.61997419  0.74764670     0.08200
H2621       H  0.70479096  0.60881319  0.70362753     0.08200
H2622       H  0.56965128  0.64601028  0.71635939     0.08200
H2623       H  0.57520085  0.63548302  0.67195606     0.08200
H2624       H  0.58491882  0.66819848  0.69184095     0.05000
C2625       C  0.71485364  0.70744374  0.59690513    -0.20800
C2626       C  0.73178568  0.72995335  0.60235347    -0.07400
C2627       C  0.74092188  0.73995597  0.63494868     0.13500
C2628       C  0.73316743  0.72693639  0.66102262    -0.20900
C2629       C  0.71624595  0.70422819  0.65588087    -0.07400
C2630       C  0.70690001  0.69439953  0.62305392     0.13400
C2631       C  0.68867337  0.67031453  0.61477146    -0.24200
H2632       H  0.70783968  0.69994335  0.57184175     0.14700
H2633       H  0.74028715  0.73500351  0.68583483     0.14800
C2634       C  0.75791083  0.76499250  0.64292813    -0.24200
H2635       H  0.68426435  0.66539497  0.58769995     0.05000
H2636       H  0.66883363  0.67416454  0.62772826     0.08200
H2637       H  0.69868011  0.65267433  0.62206664     0.08200
H2638       H  0.74743664  0.78174204  0.63402639     0.08200
H2639       H  0.77822963  0.76180037  0.63104737     0.08200
H2640       H  0.76131998  0.77094483  0.67011032     0.05000
C2641       C  0.72548438  0.73386609  0.78113144    -0.20800
C2642       C  0.72412783  0.70593325  0.77576488    -0.07400
C2643       C  0.73274355  0.69218639  0.80112399     0.13500
C2644       C  0.74108769  0.70678973  0.83180164    -0.20900
C2645       C  0.74114393  0.73484165  0.83786245    -0.07400
C2646       C  0.73391644  0.74854263  0.81169261     0.13400
C2647       C  0.73560816  0.77847051  0.81514002    -0.24200
H2648       H  0.71933155  0.74438391  0.76139292     0.14700
H2649       H  0.74703224  0.69611057  0.85145857     0.14800
C2650       C  0.73383509  0.66222796  0.79582285    -0.24200
H2651       H  0.73149694  0.78530588  0.79117958     0.05000
H2652       H  0.75635081  0.78537206  0.82335449     0.08200
H2653       H  0.72026547  0.78803999  0.83325763     0.08200
H2654       H  0.74633586  0.65466580  0.77351048     0.08200
H2655       H  0.71296528  0.65392916  0.79251109     0.08200
H2656       H  0.74303237  0.65491553  0.81743678     0.05000
C2657       C  0.81507037  0.84402620  0.63845523    -0.20800
C2658       C  0.78726951  0.84480326  0.63110174    -0.07400
C2659       C  0.76912456  0.85864387  0.65479977     0.13500
C2660       C  0.77941545  0.87131987  0.68553238    -0.20900
C2661       C  0.80737661  0.87113620  0.69239312    -0.07400
C2662       C  0.82544463  0.85724813  0.66865264     0.13400
C2663       C  0.85555125  0.85572429  0.67513709    -0.24200
H2664       H  0.82889591  0.83347237  0.62007118     0.14700
H2665       H  0.76567353  0.88170215  0.70415865     0.14800
C2666       C  0.73900677  0.85954508  0.64818640    -0.24200
H2667       H  0.86614328  0.84231461  0.65477357     0.05000
H2668       H  0.85909812  0.84801971  0.69864204     0.08200
H2669       H  0.86476474  0.87574614  0.67677694     0.08200
H2670       H  0.73081161  0.83897383  0.64193633     0.08200
H2671       H  0.73513763  0.87036695  0.62726117     0.08200
H2672       H  0.72775760  0.87003038  0.67021236     0.05000
C2673       C  0.77497212  0.85122320  0.84193506    -0.20800
C2674       C  0.79098195  0.85655340  0.87082285    -0.07400
C2675       C  0.81283938  0.87489933  0.87195120     0.13500
C2676       C  0.81915113  0.88563507  0.84350936    -0.20900
C2677       C  0.80461743  0.87855757  0.81362733    -0.07400
C2678       C  0.78144248  0.86170115  0.81330266     0.13400
C2679       C  0.76335251  0.85400219  0.78323480    -0.24200
H2680       H  0.75781756  0.83772555  0.84112413     0.14700
H2681       H  0.83642175  0.89896430  0.84449477     0.14800
C2682       C  0.82982133  0.88354913  0.90274191    -0.24200
H2683       H  0.74533937  0.84229591  0.78881129     0.05000
H2684       H  0.77469556  0.84127908  0.76296796     0.08200
H2685       H  0.75564860  0.87214990  0.77468418     0.08200
H2686       H  0.84218952  0.86664742  0.90823850     0.08200
H2687       H  0.81640167  0.89124390  0.92413262     0.08200
H2688       H  0.84430086  0.89971549  0.89962774     0.05000
C2689       C  0.59907607  0.52338396  0.54776275    -0.20800
C2690       C  0.60488069  0.49644085  0.53665952    -0.07400
C2691       C  0.58714239  0.97455838  0.55480232     0.13500
C2692       C  0.58364491  0.48570916  0.58629010    -0.20900
C2693       C  0.57768097  0.51274089  0.59789671    -0.07400
C2694       C  0.58591908  0.53194961  0.57831590     0.13400
C2695       C  0.58149871  0.56143872  0.58914972    -0.24200
H2696       H  0.60497698  0.53781893  0.53237285     0.14700
H2697       H  0.57740762  0.47069637  0.60063474     0.14800
C2698       C  0.58916154  0.94494635  0.54241909    -0.24200
H2699       H  0.59047005  0.57321649  0.57127273     0.05000
H2700       H  0.59127260  0.56820444  0.61369107     0.08200
H2701       H  0.55943471  0.56591201  0.59068174     0.08200
H2702       H  0.61081325  0.93875199  0.54042187     0.08200
H2703       H  0.57919541  0.93982807  0.51770758     0.08200
H2704       H  0.57902122  0.93321738  0.55953547     0.05000
C2705       C  0.61212157  0.49214760  0.88661108    -0.20800
C2706       C  0.59237917  0.98875922  0.91410130    -0.07400
C2707       C  0.56826722  0.49674553  0.91476242     0.13500
C2708       C  0.55717207  0.50560280  0.88702744    -0.20900
C2709       C  0.57306697  0.50837861  0.85926258    -0.07400
C2710       C  0.60091090  0.50111570  0.85882336     0.13400
C2711       C  0.61878650  0.50189539  0.82895540    -0.24200
H2712       H  0.62912567  0.98436958  0.88489806     0.14700
H2713       H  0.53576725  0.51055356  0.88711974     0.14800
C2714       C  0.54577981  0.99383590  0.94345448    -0.24200
H2715       H  0.63937713  0.49376303  0.83221684     0.05000
H2716       H  0.62143496  0.52275672  0.82506089     0.08200
H2717       H  0.60438439  0.98662988  0.80504131     0.08200
H2718       H  0.55445845  0.50816585  0.96555540     0.08200
H2719       H  0.54681160  0.97357317  0.94994040     0.08200
H2720       H  0.52777253  0.49697367  0.93692402     0.05000
C2721       C  0.65537307  0.91048249  0.93884336    -0.20800
C2722       C  0.65949469  0.93359982  0.96241328    -0.07400
C2723       C  0.68179909  0.93481748  0.98451811     0.13500
C2724       C  0.69821624  0.91230815  0.98389254    -0.20900
C2725       C  0.69289211  0.88828722  0.96217290    -0.07400
C2726       C  0.67158809  0.88771859  0.93851891     0.13400
C2727       C  0.66471694  0.86305899  0.91394432    -0.24200
H2728       H  0.63833892  0.90969727  0.92182119     0.14700
H2729       H  0.71500494  0.91333935  0.00129570     0.14800
C2730       C  0.68863330  0.95978578  0.00879011    -0.24200
H2731       H  0.64685071  0.86611814  0.89836532     0.05000
H2732       H  0.65969757  0.84652949  0.92743406     0.08200
H2733       H  0.68216355  0.85757845  0.89688645     0.08200
H2734       H  0.67256858  0.96416137  0.02803892     0.08200
H2735       H  0.69079536  0.97682620  0.99527779     0.08200
H2736       H  0.70806990  0.95776283  0.02201995     0.05000
C2737       C  0.95514473  0.58167950  0.55606404    -0.20800
C2738       C  0.92728912  0.58780302  0.55890300    -0.07400
C2739       C  0.91333320  0.58459306  0.58827633     0.13500
C2740       C  0.92754412  0.57519792  0.61380097    -0.20900
C2741       C  0.95558333  0.56972910  0.61129325    -0.07400
C2742       C  0.96956106  0.57303982  0.58184980     0.13400
C2743       C  0.99951303  0.56714719  0.57686359    -0.24200
H2744       H  0.96593655  0.58416573  0.53358962     0.14700
H2745       H  0.91678788  0.57283600  0.63633866     0.14800
C2746       C  0.88357793  0.59094247  0.59301236    -0.24200
H2747       H  0.00635104  0.56890585  0.55135531     0.05000
H2748       H  0.00388682  0.54653245  0.58074054     0.08200
H2749       H  0.51092594  0.56778436  0.58832849     0.08200
H2750       H  0.87164053  0.58015387  0.57177126     0.08200
H2751       H  0.88079934  0.61270058  0.59504024     0.08200
H2752       H  0.87551064  0.58519183  0.61623669     0.05000
C2753       C  0.92782301  0.58159336  0.87743306    -0.20800
C2754       C  0.95224751  0.56733626  0.87606318    -0.07400
C2755       C  0.96353910  0.56135500  0.90572434     0.13500
C2756       C  0.95009234  0.56988441  0.93601561    -0.20900
C2757       C  0.92573285  0.58459896  0.93770908    -0.07400
C2758       C  0.91437051  0.59035601  0.90765558     0.13400
C2759       C  0.88814881  0.60555965  0.90656759    -0.24200
H2760       H  0.91932457  0.58615128  0.85452797     0.14700
H2761       H  0.95921463  0.56555128  0.95866286     0.14800
C2762       C  0.99032902  0.54703845  0.90586971    -0.24200
H2763       H  0.88174724  0.60638571  0.88064558     0.05000
H2764       H  0.89076702  0.62645839  0.91932827     0.08200
H2765       H  0.87153769  0.59571502  0.91843432     0.08200
H2766       H  0.00641538  0.55798879  0.89456904     0.08200
H2767       H  0.98835788  0.52655682  0.89158315     0.08200
H2768       H  0.99691755  0.54537746  0.93148515     0.05000
C2769       C  0.87981534  0.67010222  0.99369560    -0.20800
C2770       C  0.86995169  0.65117306  0.51006596    -0.07400
C2771       C  0.84519306  0.65447807  0.52803135     0.13500
C2772       C  0.82898304  0.67694852  0.52635153    -0.20900
C2773       C  0.83824652  0.69504155  0.00721722    -0.07400
C2774       C  0.86399298  0.69253348  0.99175543     0.13400
C2775       C  0.87484138  0.71351113  0.97319446    -0.24200
H2776       H  0.89942273  0.66793902  0.98129880     0.14700
H2777       H  0.80964948  0.67937676  0.53934770     0.14800
C2778       C  0.83520543  0.63393636  0.54764153    -0.24200
H2779       H  0.89573555  0.70876006  0.96358334     0.05000
H2780       H  0.87281898  0.73334263  0.48629616     0.08200
H2781       H  0.86158209  0.71502905  0.95161010     0.08200
H2782       H  0.84928451  0.63307484  0.56853297     0.08200
H2783       H  0.83262282  0.61225509  0.02663381     0.08200
H2784       H  0.81468430  0.63889608  0.55835575     0.05000
loop_ 
_geom_bond_atom_site_label_1 
_geom_bond_atom_site_label_2 
_geom_bond_distance 
_geom_bond_site_symmetry_2 
_ccdc_geom_bond_type 
C1            N6   1.362       .  A
C1          N350   1.357   1_554  A
C1          C302   1.475       .  S
N2            C3   1.357       .  A
N2          C349   1.359       .  A
C3            N4   1.355       .  A
C3          C321   1.496       .  S
N4          C353   1.357       .  A
C5            N6   1.361       .  A
C5          N352   1.357   1_554  A
C5          C334   1.486       .  S
C7            N8   1.361       .  A
C7          N708   1.356       .  A
C7          C270   1.476       .  S
N8            C9   1.357       .  A
C9          N358   1.352       .  A
C9          C286   1.469       .  S
N10          C11   1.350   1_556  A
N10         C357   1.353       .  A
C11        N1056   1.351   1_554  A
C11         C950   1.464       .  S
N12         C703   1.356       .  A
N12        C1055   1.352       .  A
Zr13         O14   2.436       .  S
Zr13         O15   2.419       .  S
Zr13         O16   2.429       .  S
Zr13         O19   2.424       .  S
Zr13         O21   2.374       .  S
Zr13         O22   2.379       .  S
Zr13         O23   2.404       .  S
Zr13         O24   2.394       .  S
O14          H70   0.990       .  S
O14          H78   0.989       .  S
O15          C35   1.283       .  A
O16          C37   1.283       .  A
O17         Zr27   2.416       .  S
O17          C36   1.282       .  A
O18         Zr26   2.430   1_556  S
O18         C385   1.286       .  A
O19          C36   1.283       .  A
O20         Zr28   2.427       .  S
O20          C35   1.282       .  A
O21         Zr28   2.369       .  S
O21        Zr374   2.385       .  S
O22         Zr27   2.388       .  S
O22         Zr28   2.374       .  S
O22          H57   0.966       .  S
O23        Zr374   2.394       .  S
O23        Zr391   2.399       .  S
O23          H60   0.966       .  S
O24         Zr27   2.389       .  S
O24        Zr391   2.393       .  S
Zr25         O50   2.446       .  S
Zr25         O44   2.421       .  S
Zr25         O52   2.434       .  S
Zr25         O40   2.431       .  S
Zr25         O32   2.401       .  S
Zr25         O33   2.382       .  S
Zr25         O34   2.380       .  S
Zr25        O379   2.396   1_554  S
Zr26         O45   2.437       .  S
Zr26         O38   2.435       .  S
Zr26         O39   2.422       .  S
Zr26         O32   2.397       .  S
Zr26         O33   2.387       .  S
Zr26        O369   2.382   1_554  S
Zr26        O371   2.391   1_554  S
Zr27         O29   2.435       .  S
Zr27         O51   2.437       .  S
Zr27         O53   2.422       .  S
Zr27         O31   2.384       .  S
Zr27        O382   2.383       .  S
Zr28         O54   2.435       .  S
Zr28         O55   2.435       .  S
Zr28         O30   2.437       .  S
Zr28         O31   2.398       .  S
Zr28        O380   2.389       .  S
O29          H66   0.990       .  S
O30          H61   0.990       .  S
O30          H75   0.990       .  S
O31        Zr373   2.396       .  S
O32        Zr376   2.389   1_554  S
O32          H58   0.966       .  S
O33         Zr43   2.375       .  S
O34         Zr43   2.376       .  S
O34        Zr375   2.383   1_554  S
O34          H59   0.966       .  S
C35         C238   1.484       .  S
C36         C209   1.476       .  S
C37         C289   1.481       .  S
C37         O366   1.283       .  A
O38          H74   0.990       .  S
O39          C41   1.282       .  A
O40          C41   1.285       .  A
C41         C222   1.475       .  S
O42        Zr391   2.438       .  S
O42          H71   0.990       .  S
Zr43         O46   2.435       .  S
Zr43        O390   2.435   1_554  S
Zr43        O395   2.439   1_554  S
Zr43         O48   2.418       .  S
Zr43        O371   2.400   1_554  S
Zr43        O372   2.392   1_554  S
O44          C49   1.282       .  A
O45          H62   0.990       .  S
O45          H77   0.990       .  S
O46          H63   0.990       .  S
O47        Zr391   2.440       .  S
O47          H76   0.990       .  S
O47         H415   0.990       .  S
O48          C49   1.282       .  A
C49         C190   1.480       .  S
O50          H69   0.990       .  S
O50          H73   0.990       .  S
O51          H65   0.990       .  S
O51          H72   0.990       .  S
O52         C404   1.285   1_554  A
O53          C56   1.283       .  A
O54          H64   0.990       .  S
O55         H416   0.990       .  S
C56         C337   1.464       .  S
C56         O400   1.282       .  A
H67         O395   0.990   1_554  S
H68         O403   0.990   1_554  S
C79          N80   1.358       .  A
C79          N84   1.357       .  A
C79         C193   1.495       .  S
N80          C81   1.356       .  A
C81          N82   1.358       .  A
C81         C206   1.485       .  S
N82          C83   1.358       .  A
C83          N84   1.357       .  A
C83         C177   1.472       .  S
C85          N86   1.354       .  A
C85          N90   1.363       .  A
C85         C241   1.495       .  S
N86          C87   1.351       .  A
C87          N88   1.354       .  A
C87         C225   1.472       .  S
N88          C89   1.359       .  A
C89          N90   1.360       .  A
C89         C158   1.480       .  S
Zr91         O92   2.435       .  S
Zr91         O93   2.431       .  S
Zr91         O94   2.442       .  S
Zr91       O1489   2.425   1_455  S
Zr91         O99   2.377       .  S
Zr91        O100   2.381       .  S
Zr91        O101   2.409       .  S
Zr91       O1494   2.402   1_455  S
O92         H148   0.990       .  S
O92         H156   0.989       .  S
O93         C113   1.282       .  A
O94         C115   1.285       .  A
O95        Zr105   2.430       .  S
O95         C114   1.285       .  A
O96        Zr104   2.422       .  S
O96         C115   1.283       .  A
O97       Zr1483   2.420       .  S
O97         C114   1.282       .  A
O98        Zr802   2.408   1_545  S
O98         C113   1.281       .  A
O99        Zr104   2.386       .  S
O99        Zr802   2.376   1_545  S
O100      Zr1497   2.387   1_455  S
O100       Zr802   2.375   1_545  S
O100        H135   0.966       .  S
O101       Zr104   2.396       .  S
O101      Zr1513   2.402   1_455  S
O101        H138   0.967       .  S
O102       Zr105   2.390       .  S
O102       Zr121   2.392       .  S
O102      Zr1483   2.398       .  S
Zr103       O824   2.440   1_545  S
Zr103       O118   2.437   1_655  S
Zr103      O1514   2.422       .  S
Zr103      O2218   2.428   1_545  S
Zr103       O110   2.401   1_655  S
Zr103       O111   2.380   1_655  S
Zr103      O1501   2.395   1_545  S
Zr103      O1504   2.384       .  S
Zr104       O123   2.437       .  S
Zr104       O116   2.434       .  S
Zr104       O117   2.418       .  S
Zr104       O110   2.395       .  S
Zr104       O111   2.391       .  S
Zr105       O107   2.435       .  S
Zr105       O825   2.438   1_545  S
Zr105       O131   2.423   1_545  S
Zr105       O109   2.390   1_545  S
Zr105       O112   2.389       .  S
Zr105      O1492   2.386       .  S
Zr106       O132   2.438       .  S
Zr106       O133   2.436       .  S
Zr106       O108   2.436       .  S
Zr106       O794   2.415       .  S
Zr106       O795   2.380       .  S
Zr106       O796   2.374       .  S
Zr106      O2197   2.388   1_455  S
Zr106       O806   2.389       .  S
O107        H144   0.990       .  S
O108        H139   0.990       .  S
O108        H849   0.990       .  S
O109      Zr1495   2.399   1_565  S
O109      Zr2194   2.391       .  S
O110       Zr802   2.385   1_545  S
O110        H136   0.966   1_545  S
O111      Zr1513   2.377   1_455  S
O112       Zr121   2.379       .  S
O112      Zr1495   2.383       .  S
O112        H137   0.966       .  S
C113        C257   1.494       .  S
C114        C305   1.484       .  S
C115        C174   1.487       .  S
O116        H152   0.990       .  S
O117        C119   1.281       .  A
O118        C119   1.286       .  A
C119        C273   1.484       .  S
O120       Zr121   2.438       .  S
O120        H149   0.990       .  S
Zr121       O125   2.439       .  S
Zr121      O1516   2.439       .  S
Zr121       O126   2.417       .  S
Zr121      O1493   2.393       .  S
Zr121      O1503   2.375       .  S
O122      Zr1495   2.431       .  S
O122        C127   1.283       .  A
O123        H140   0.990       .  S
O123        H155   0.990       .  S
O124      Zr1513   2.437   1_455  S
O124        H141   0.990       .  S
O125        H145   0.990       .  S
O125        H154   0.990       .  S
O126        C127   1.281       .  A
C127        C318   1.478       .  S
O128       Zr799   2.446   1_455  S
O128        H151   0.990       .  S
O128       H1539   0.990   1_455  S
O129       Zr801   2.438       .  S
O129        H143   0.990       .  S
O129        H150   0.990       .  S
O130      Zr2191   2.432       .  S
O130        C134   1.283       .  A
O131        C830   1.283       .  A
O132        H142   0.990       .  S
O133        H146   0.990       .  S
C134        C161   1.469       .  S
C134        O827   1.283       .  A
H147       O1520   0.990       .  S
H153        O804   0.990       .  S
C157        C158   1.404       .  A
C157        C162   1.399       .  A
C157        H164   1.083       .  S
C158        C159   1.417       .  A
C159        C160   1.407       .  A
C159        C166   1.507       .  S
C160        C161   1.401       .  A
C160        H165   1.084       .  S
C161        C162   1.409       .  A
C162        C163   1.508       .  S
C163        H167   1.111       .  S
C163        H168   1.111       .  S
C163        H169   1.109       .  S
C166        H170   1.109       .  S
C166        H171   1.110       .  S
C166        H172   1.111       .  S
C173        C174   1.407       .  A
C173        C178   1.402       .  A
C173        H180   1.084       .  S
C174        C175   1.418       .  A
C175        C176   1.404       .  A
C175        C182   1.504       .  S
C176        C177   1.400       .  A
C176        H181   1.085       .  S
C177        C178   1.409       .  A
C178        C179   1.505       .  S
C179        H183   1.111       .  S
C179        H184   1.104       .  S
C179        H185   1.110       .  S
C182        H186   1.110       .  S
C182        H187   1.108       .  S
C182        H188   1.111       .  S
C189        C190   1.404       .  A
C189        C194   1.404       .  A
C189        H196   1.084       .  S
C190        C191   1.413       .  A
C191        C192   1.399       .  A
C191        C198   1.511       .  S
C192        C193   1.410       .  A
C192        H197   1.083       .  S
C193        C194   1.423       .  A
C194        C195   1.509       .  S
C195        H199   1.111       .  S
C195        H200   1.110       .  S
C195        H201   1.110       .  S
C198        H202   1.111       .  S
C198        H203   1.110       .  S
C198        H204   1.111       .  S
C205        C206   1.407       .  A
C205        C210   1.402       .  A
C205        H212   1.084       .  S
C206        C207   1.416       .  A
C207        C208   1.401       .  A
C207        C214   1.505       .  S
C208        C209   1.402       .  A
C208        H213   1.084       .  S
C209        C210   1.412       .  A
C210        C211   1.507       .  S
C211        H215   1.110       .  S
C211        H216   1.111       .  S
C211        H217   1.109       .  S
C214        H218   1.110       .  S
C214        H219   1.108       .  S
C214        H220   1.111       .  S
C221        C222   1.403       .  A
C221        C226   1.400       .  A
C221        H228   1.084       .  S
C222        C223   1.415       .  A
C223        C224   1.404       .  A
C223        C230   1.507       .  S
C224        C225   1.403       .  A
C224        H229   1.084       .  S
C225        C226   1.413       .  A
C226        C227   1.507       .  S
C227        H231   1.111       .  S
C227        H232   1.110       .  S
C227        H233   1.109       .  S
C230        H234   1.110       .  S
C230        H235   1.109       .  S
C230        H236   1.111       .  S
C237        C238   1.401       .  A
C237        C242   1.400       .  A
C237        H244   1.082       .  S
C238        C239   1.415       .  A
C239        C240   1.404       .  A
C239        C246   1.508       .  S
C240        C241   1.409       .  A
C240        H245   1.083       .  S
C241        C242   1.425       .  A
C242        C243   1.511       .  S
C243        H247   1.110       .  S
C243        H248   1.110       .  S
C243        H249   1.110       .  S
C246        H250   1.109       .  S
C246        H251   1.110       .  S
C246        H252   1.111       .  S
C253        C254   1.401   1_545  A
C253        C258   1.405       .  A
C253        H260   1.084       .  S
C254        C707   1.473       .  S
C254        C951   1.411       .  A
C255        C950   1.409       .  A
C255        C952   1.397       .  A
C255        C262   1.510       .  S
C256        C257   1.410   1_565  A
C256        C951   1.397       .  A
C256        H261   1.083       .  S
C257        C258   1.423       .  A
C258        C259   1.507       .  S
C259        H263   1.111       .  S
C259        H264   1.110       .  S
C259        H265   1.106       .  S
C262        H266   1.110       .  S
C262        H267   1.111       .  S
C262        H268   1.111       .  S
C269        C274   1.403   1_565  A
C269        C966   1.400       .  A
C269        H972   1.084       .  S
C270        C965   1.401       .  A
C270        C967   1.416       .  A
C271        C272   1.400   1_565  A
C271        C966   1.416       .  A
C271        C974   1.509       .  S
C272        C273   1.403       .  A
C272        H277   1.083       .  S
C273        C274   1.420       .  A
C274        C275   1.508       .  S
C275        H279   1.111       .  S
C275        H280   1.109       .  S
C275        H977   1.110       .  S
H276        C965   1.084       .  S
C278        C967   1.509       .  S
C278        H283   1.110       .  S
C278        H978   1.109       .  S
C278        H980   1.111       .  S
H281        C971   1.110       .  S
H282        C974   1.109   1_545  S
H284        C974   1.111       .  S
C285        C286   1.401       .  A
C285        C290   1.403       .  A
C285        H292   1.084       .  S
C286        C287   1.411       .  A
C287        C288   1.398       .  A
C287        C294   1.509       .  S
C288        C289   1.406       .  A
C288        H293   1.084       .  S
C289        C290   1.417       .  A
C290        C291   1.505       .  S
C291        H295   1.111       .  S
C291        H296   1.110       .  S
C291        H297   1.109       .  S
C294        H298   1.108       .  S
C294        H299   1.110       .  S
C294        H300   1.111       .  S
C301        C302   1.402       .  A
C301        C306   1.400       .  A
C301        H308   1.085       .  S
C302        C303   1.410       .  A
C303        C304   1.404       .  A
C303        C310   1.504       .  S
C304        C305   1.407       .  A
C304        H309   1.084       .  S
C305        C306   1.419       .  A
C306        C307   1.509       .  S
C307        H311   1.111       .  S
C307        H312   1.111       .  S
C307       H1705   1.108       .  S
C310        H314   1.111       .  S
C310        H315   1.105       .  S
C310        H316   1.111       .  S
H313       C1699   1.108   1_455  S
C317        C318   1.401       .  A
C317        C322   1.403       .  A
C317        H324   1.085       .  S
C318        C319   1.411       .  A
C319        C320   1.403       .  A
C319        C326   1.508       .  S
C320        C321   1.411       .  A
C320        H325   1.083       .  S
C321        C322   1.423       .  A
C322        C323   1.509       .  S
C323        H327   1.111       .  S
C323        H328   1.110       .  S
C323        H329   1.110       .  S
C326        H330   1.111       .  S
C326        H331   1.109       .  S
C326        H332   1.111       .  S
C333        C338   1.398       .  A
C333        C682   1.402       .  A
C333        H340   1.084       .  S
C334        C335   1.416       .  A
C334        C681   1.406   1_554  A
C335        C336   1.406       .  A
C335        C342   1.503       .  S
C336        C685   1.403       .  A
C336        H341   1.084       .  S
C337        C338   1.409       .  A
C337        C684   1.401       .  A
C338        C339   1.508       .  S
C339        H343   1.111       .  S
C339        H345   1.109       .  S
C339        H692   1.111       .  S
C342        H346   1.109       .  S
C342        H348   1.111       .  S
C342        H695   1.110       .  S
H344        C687   1.110       .  S
H347        C690   1.110       .  S
C349        N354   1.359       .  A
C349        C650   1.486       .  S
N350        C351   1.354       .  A
C351        N352   1.351       .  A
C351        C669   1.482       .  S
C353        N354   1.357       .  A
C353        C682   1.472       .  S
C355        N356   1.362       .  A
C355       N1056   1.355       .  A
C355        C618   1.479       .  S
N356        C357   1.360       .  A
C357        C634   1.471       .  S
N358        C359   1.350       .  A
C359        N708   1.354       .  A
C359       C1298   1.467       .  S
N360       C1051   1.356       .  A
N360        C707   1.353   1_556  A
Zr361       O362   2.436       .  S
Zr361       O363   2.419       .  S
Zr361       O364   2.420       .  S
Zr361       O367   2.412       .  S
Zr361       O369   2.374       .  S
Zr361       O370   2.379       .  S
Zr361       O371   2.398       .  S
Zr361       O372   2.395       .  S
O362        H418   0.989       .  S
O362        H426   0.990       .  S
O363        C383   1.283       .  A
O364        C385   1.281       .  A
O365       Zr375   2.414       .  S
O365        C384   1.282       .  A
O366       Zr374   2.414       .  S
O367        C384   1.281       .  A
O368       Zr376   2.422       .  S
O368        C383   1.281       .  A
O369       Zr376   2.372       .  S
O370       Zr375   2.383       .  S
O370       Zr376   2.372       .  S
O370        H405   0.966       .  S
O371        H408   0.966       .  S
O372       Zr375   2.386       .  S
Zr373       O398   2.443       .  S
Zr373       O392   2.420       .  S
Zr373       O400   2.424       .  S
Zr373       O388   2.407       .  S
Zr373       O380   2.399       .  S
Zr373       O381   2.379       .  S
Zr373       O382   2.377       .  S
Zr374       O393   2.435       .  S
Zr374       O386   2.434       .  S
Zr374       O387   2.427       .  S
Zr374       O380   2.392       .  S
Zr374       O381   2.381       .  S
Zr375       O377   2.435       .  S
Zr375       O399   2.438       .  S
Zr375       O401   2.413       .  S
Zr375       O379   2.386       .  S
Zr376       O402   2.434       .  S
Zr376       O403   2.436       .  S
Zr376       O378   2.437       .  S
Zr376       O379   2.391       .  S
O377        H414   0.990       .  S
O378        H409   0.990       .  S
O378        H423   0.990       .  S
O380        H406   0.967       .  S
O381       Zr391   2.374       .  S
O382       Zr391   2.377       .  S
O382        H407   0.967       .  S
C383        C586   1.489       .  S
C384        C557   1.473       .  S
C385        C637   1.485       .  S
O386        H422   0.990       .  S
O387        C389   1.283       .  A
O388        C389   1.281       .  A
C389        C570   1.463       .  S
O390        H419   0.990       .  S
Zr391       O394   2.438       .  S
Zr391       O396   2.427       .  S
O392        C397   1.282       .  A
O393        H410   0.990       .  S
O393        H425   0.990       .  S
O394        H411   0.990       .  S
O395        H424   0.990       .  S
O396        C397   1.283       .  A
C397        C538   1.474       .  S
O398        H417   0.990       .  S
O398        H421   0.990       .  S
O399        H413   0.990       .  S
O399        H420   0.990       .  S
O401        C404   1.281       .  A
O402        H412   0.990       .  S
C404        C685   1.478   1_556  S
C427        N428   1.356       .  A
C427        N432   1.358       .  A
C427        C541   1.490       .  S
N428        C429   1.355       .  A
C429        N430   1.355       .  A
C429        C554   1.480       .  S
N430        C431   1.355       .  A
C431        N432   1.358       .  A
C431        C525   1.468       .  S
C433        N434   1.356       .  A
C433        N438   1.361       .  A
C433        C589   1.492       .  S
N434        C435   1.355       .  A
C435        N436   1.354       .  A
C435        C573   1.474       .  S
N436        C437   1.355       .  A
C437        N438   1.356       .  A
C437        C506   1.481       .  S
Zr439       O440   2.435       .  S
Zr439       O441   2.438       .  S
Zr439       O442   2.433       .  S
Zr439      O1837   2.417   1_455  S
Zr439       O447   2.379       .  S
Zr439       O448   2.377       .  S
Zr439       O449   2.404       .  S
Zr439      O1842   2.400   1_455  S
O440        H496   0.990       .  S
O440        H504   0.989       .  S
O441        C461   1.283       .  A
O442        C463   1.284       .  A
O443       Zr453   2.430       .  S
O443        C462   1.284       .  A
O444       Zr452   2.423       .  S
O444        C463   1.284       .  A
O445      Zr1831   2.418       .  S
O445        C462   1.281       .  A
O446      Zr1150   2.409   1_545  S
O446        C461   1.281       .  A
O447       Zr452   2.389       .  S
O447      Zr1150   2.373   1_545  S
O448      Zr1845   2.385   1_455  S
O448      Zr1150   2.373   1_545  S
O448        H483   0.966       .  S
O449       Zr452   2.392       .  S
O449      Zr1861   2.397   1_455  S
O449        H486   0.967       .  S
O450      Zr1831   2.402       .  S
O450       Zr453   2.386       .  S
O450       Zr469   2.396       .  S
Zr451      O1172   2.443   1_545  S
Zr451      O1862   2.429       .  S
Zr451      O2566   2.432   1_545  S
Zr451       O466   2.438   1_655  S
Zr451      O1849   2.401   1_545  S
Zr451       O458   2.404   1_655  S
Zr451       O459   2.380   1_655  S
Zr451      O1852   2.384       .  S
Zr452       O471   2.434       .  S
Zr452       O464   2.432       .  S
Zr452       O465   2.425       .  S
Zr452       O458   2.393       .  S
Zr452       O459   2.384       .  S
Zr453       O455   2.435       .  S
Zr453      O1173   2.438   1_545  S
Zr453       O479   2.418   1_545  S
Zr453      O1840   2.385       .  S
Zr453       O457   2.394   1_545  S
Zr453       O460   2.384       .  S
Zr454       O480   2.435       .  S
Zr454       O481   2.437       .  S
Zr454       O456   2.437       .  S
Zr454      O1142   2.407       .  S
Zr454      O1143   2.373       .  S
Zr454      O1144   2.377       .  S
Zr454      O2545   2.390   1_455  S
Zr454      O1154   2.381       .  S
O455        H492   0.990       .  S
O456        H487   0.990       .  S
O456       H1197   0.990       .  S
O457      Zr1843   2.396   1_565  S
O457      Zr2542   2.384       .  S
O458      Zr1150   2.384   1_545  S
O458        H484   0.966   1_545  S
O459      Zr1861   2.370   1_455  S
O460      Zr1843   2.385       .  S
O460       Zr469   2.372       .  S
O460        H485   0.966       .  S
C461        C605   1.493       .  S
C462        C653   1.478       .  S
C463        C522   1.483       .  S
O464        H500   0.990       .  S
O465        C467   1.283       .  A
O466        C467   1.287       .  A
C467        C621   1.489       .  S
O468       Zr469   2.438       .  S
O468        H497   0.990       .  S
Zr469      O1864   2.437       .  S
Zr469       O473   2.439       .  S
Zr469       O474   2.425       .  S
Zr469      O1841   2.399       .  S
Zr469      O1851   2.378       .  S
O470      Zr1843   2.414       .  S
O470        C475   1.280       .  A
O471        H488   0.990       .  S
O471        H503   0.990       .  S
O472      Zr1861   2.435   1_455  S
O472        H489   0.990   1_455  S
O473        H493   0.990       .  S
O473        H502   0.990       .  S
O474        C475   1.282       .  A
C475        C666   1.468       .  S
O476      Zr1147   2.445   1_455  S
O476       H1887   0.990   1_455  S
O476        H499   0.990       .  S
O477      Zr1149   2.438       .  S
O477        H491   0.990       .  S
O477        H498   0.990       .  S
O478      Zr2539   2.428       .  S
O478        C482   1.283       .  A
O479       C1178   1.282       .  A
O480        H490   0.990       .  S
O481        H494   0.990       .  S
C482        C509   1.469       .  S
C482       O1175   1.283       .  A
H495       O1868   0.990       .  S
H501       O1152   0.990       .  S
C505        C506   1.405       .  A
C505        C510   1.398       .  A
C505        H512   1.082       .  S
C506        C507   1.417       .  A
C507        C508   1.406       .  A
C507        C514   1.507       .  S
C508        C509   1.401       .  A
C508        H513   1.084       .  S
C509        C510   1.409       .  A
C510        C511   1.508       .  S
C511        H515   1.111       .  S
C511        H516   1.111       .  S
C511        H517   1.109       .  S
C514        H518   1.109       .  S
C514        H519   1.110       .  S
C514        H520   1.111       .  S
C521        C522   1.406       .  A
C521        C526   1.402       .  A
C521        H528   1.084       .  S
C522        C523   1.418       .  A
C523        C524   1.401       .  A
C523        C530   1.504       .  S
C524        C525   1.398       .  A
C524        H529   1.085       .  S
C525        C526   1.410       .  A
C526        C527   1.506       .  S
C527        H531   1.111       .  S
C527        H532   1.106       .  S
C527        H533   1.110       .  S
C530        H534   1.110       .  S
C530        H535   1.107       .  S
C530        H536   1.111       .  S
C537        C538   1.402       .  A
C537        C542   1.405       .  A
C537        H544   1.084       .  S
C538        C539   1.411       .  A
C539        C540   1.399       .  A
C539        C546   1.509       .  S
C540        C541   1.410       .  A
C540        H545   1.083       .  S
C541        C542   1.420       .  A
C542        C543   1.508       .  S
C543        H547   1.111       .  S
C543        H548   1.110       .  S
C543        H549   1.110       .  S
C546        H550   1.109       .  S
C546        H551   1.109       .  S
C546        H552   1.111       .  S
C553        C554   1.408       .  A
C553        C558   1.400       .  A
C553        H560   1.084       .  S
C554        C555   1.415       .  A
C555        C556   1.397       .  A
C555        C562   1.507       .  S
C556        C557   1.403       .  A
C556        H561   1.084       .  S
C557        C558   1.413       .  A
C558        C559   1.510       .  S
C559        H563   1.111       .  S
C559        H564   1.110       .  S
C559        H565   1.110       .  S
C562        H566   1.110       .  S
C562        H567   1.109       .  S
C562        H568   1.111       .  S
C569        C570   1.399       .  A
C569        C574   1.395       .  A
C569        H576   1.085       .  S
C570        C571   1.409       .  A
C571        C572   1.403       .  A
C571        C578   1.506       .  S
C572        C573   1.406       .  A
C572        H577   1.084       .  S
C573        C574   1.416       .  A
C574        C575   1.508       .  S
C575        H579   1.111       .  S
C575        H580   1.110       .  S
C575        H581   1.108       .  S
C578        H582   1.109       .  S
C578        H583   1.110       .  S
C578        H584   1.111       .  S
C585        C586   1.406       .  A
C585        C590   1.402       .  A
C585        H592   1.084       .  S
C586        C587   1.419       .  A
C587        C588   1.401       .  A
C587        C594   1.510       .  S
C588        C589   1.407       .  A
C588        H593   1.083       .  S
C589        C590   1.421       .  A
C590        C591   1.510       .  S
C591        H595   1.111       .  S
C591        H596   1.109       .  S
C591        H597   1.110       .  S
C594        H598   1.109       .  S
C594        H599   1.110       .  S
C594        H600   1.111       .  S
C601        C602   1.403   1_545  A
C601        C606   1.408       .  A
C601        H608   1.084       .  S
C602       C1055   1.473       .  S
C602       C1299   1.410       .  A
C603       C1298   1.411       .  A
C603       C1300   1.395       .  A
C603        C610   1.511       .  S
C604       C1299   1.396       .  A
C604        C605   1.409   1_565  A
C604        H609   1.083       .  S
C605        C606   1.421       .  A
C606        C607   1.507       .  S
C607        H611   1.111       .  S
C607        H612   1.110       .  S
C607        H613   1.108       .  S
C610        H614   1.109       .  S
C610        H615   1.111       .  S
C610        H616   1.111       .  S
C617       C1314   1.399       .  A
C617        C622   1.403   1_565  A
C617       H1320   1.084       .  S
C618       C1313   1.403       .  A
C618       C1315   1.418       .  A
C619       C1314   1.416       .  A
C619        C620   1.402   1_565  A
C619       C1322   1.509       .  S
C620        C621   1.405       .  A
C620        H625   1.082       .  S
C621        C622   1.422       .  A
C622        C623   1.507       .  S
C623        H627   1.111       .  S
C623        H628   1.109       .  S
C623       H1325   1.110       .  S
H624       C1313   1.084       .  S
C626       C1315   1.510       .  S
C626       H1326   1.109       .  S
C626        H631   1.111       .  S
C626       H1328   1.111       .  S
H629       C1319   1.111       .  S
H630       C1322   1.109   1_545  S
H632       C1322   1.111       .  S
C633        C634   1.400       .  A
C633        C638   1.402       .  A
C633        H640   1.084       .  S
C634        C635   1.412       .  A
C635        C636   1.400       .  A
C635        C642   1.509   1_556  S
C636        C637   1.406       .  A
C636        H641   1.084   1_556  S
C637        C638   1.420       .  A
C638        C639   1.505       .  S
C639        H643   1.111       .  S
C639        H644   1.109       .  S
C639        H645   1.109       .  S
C642        H646   1.108       .  S
C642        H647   1.110   1_554  S
C642        H648   1.111       .  S
C649        C650   1.406       .  A
C649        C654   1.400       .  A
C649        H656   1.084       .  S
C650        C651   1.418       .  A
C651        C652   1.404       .  A
C651        C658   1.505       .  S
C652        C653   1.403       .  A
C652        H657   1.084       .  S
C653        C654   1.414       .  A
C654        C655   1.509       .  S
C655        H659   1.111       .  S
C655        H660   1.110       .  S
C655       H2053   1.108       .  S
C658        H662   1.110       .  S
C658        H663   1.109       .  S
C658        H664   1.111       .  S
H661       C2047   1.109       .  S
C665        C666   1.400       .  A
C665        C670   1.402       .  A
C665        H672   1.085       .  S
C666        C667   1.410       .  A
C667        C668   1.398       .  A
C667        C674   1.507       .  S
C668        C669   1.406       .  A
C668        H673   1.084       .  S
C669        C670   1.420       .  A
C670        C671   1.509       .  S
C671        H675   1.111       .  S
C671        H676   1.109       .  S
C671        H677   1.110       .  S
C674        H678   1.111       .  S
C674        H679   1.109       .  S
C674        H680   1.111       .  S
C681        C686   1.398       .  A
C681        H688   1.084       .  S
C682        C683   1.414       .  A
C683        C684   1.405       .  A
C683        C690   1.505       .  S
C684        H689   1.084       .  S
C685        C686   1.414   1_554  A
C686        C687   1.509       .  S
C687        H691   1.111       .  S
C687        H693   1.108       .  S
C690        H694   1.106       .  S
C690        H696   1.111       .  S
C697       N1046   1.360   1_554  A
C697        N702   1.363       .  A
C697        C998   1.480       .  S
N698       C1045   1.359       .  A
N698        C699   1.355       .  A
C699        N700   1.349       .  A
C699       C1017   1.489       .  S
N700       C1049   1.353       .  A
C701       N1048   1.356   1_554  A
C701        N702   1.362       .  A
C701       C1030   1.482       .  S
C703        N704   1.364       .  A
C703        C966   1.476       .  S
N704        C705   1.362       .  A
C705       N1054   1.356       .  A
C705        C982   1.481       .  S
N706       C1053   1.353   1_554  A
N706        C707   1.351       .  A
Zr709       O710   2.436       .  S
Zr709       O711   2.414       .  S
Zr709       O712   2.438       .  S
Zr709       O715   2.432       .  S
Zr709       O717   2.377       .  S
Zr709       O718   2.382       .  S
Zr709       O719   2.401       .  S
Zr709       O720   2.395       .  S
O710        H766   0.990       .  S
O710        H774   0.990       .  S
O711        C731   1.283       .  A
O712        C733   1.285       .  A
O713       Zr723   2.422       .  S
O713        C732   1.283       .  A
O714       Zr722   2.423   1_556  S
O714       C1081   1.284       .  A
O715        C732   1.285       .  A
O716       Zr724   2.423       .  S
O716        C731   1.281       .  A
O717      Zr1070   2.386       .  S
O717       Zr724   2.372       .  S
O718       Zr723   2.386       .  S
O718       Zr724   2.375       .  S
O718        H753   0.966       .  S
O719      Zr1070   2.391       .  S
O719      Zr1087   2.399       .  S
O719        H756   0.966       .  S
O720       Zr723   2.389       .  S
O720      Zr1087   2.391       .  S
Zr721       O746   2.446       .  S
Zr721       O740   2.417       .  S
Zr721       O748   2.429       .  S
Zr721       O736   2.428       .  S
Zr721      O1075   2.399   1_554  S
Zr721       O728   2.400       .  S
Zr721       O729   2.380       .  S
Zr721       O730   2.381   1_554  S
Zr722       O741   2.436       .  S
Zr722       O734   2.434       .  S
Zr722       O735   2.424       .  S
Zr722      O1065   2.386   1_554  S
Zr722      O1067   2.393   1_554  S
Zr722       O728   2.399       .  S
Zr722       O729   2.381       .  S
Zr723       O725   2.436       .  S
Zr723       O747   2.438       .  S
Zr723       O749   2.420       .  S
Zr723       O727   2.390       .  S
Zr723      O1078   2.384       .  S
Zr724       O750   2.436       .  S
Zr724       O751   2.436       .  S
Zr724       O726   2.436       .  S
Zr724       O727   2.396       .  S
Zr724      O1076   2.392       .  S
O725        H762   0.990       .  S
O726        H757   0.990       .  S
O726        H771   0.990       .  S
O727      Zr1069   2.400       .  S
O728      Zr1072   2.383   1_554  S
O728        H754   0.966       .  S
O729       Zr739   2.375       .  S
O730      Zr1071   2.383       .  S
O730       Zr739   2.377   1_556  S
O730        H755   0.966   1_556  S
C731        C934   1.482       .  S
C732        C905   1.480       .  S
C733        C985   1.491       .  S
C733       O1062   1.285       .  A
O734        H770   0.990       .  S
O735        C737   1.282       .  A
O736        C737   1.284       .  A
C737        C918   1.473       .  S
O738      Zr1087   2.437       .  S
O738        H767   0.990       .  S
Zr739      O1086   2.440   1_554  S
Zr739       O742   2.436       .  S
Zr739      O1091   2.441   1_554  S
Zr739       O744   2.418       .  S
Zr739      O1067   2.400   1_554  S
Zr739      O1068   2.390   1_554  S
O740        C745   1.281       .  A
O741        H758   0.990       .  S
O741        H773   0.990       .  S
O742        H759   0.990       .  S
O743      Zr1087   2.440       .  S
O743       H1111   0.990       .  S
O743        H772   0.990       .  S
O744        C745   1.283       .  A
C745        C886   1.485       .  S
O746        H765   0.990       .  S
O746        H769   0.990       .  S
O747        H761   0.990       .  S
O747        H768   0.990       .  S
O748       C1100   1.283       .  A
O749        C752   1.283       .  A
O750        H760   0.990       .  S
O751       H1112   0.990       .  S
C752       C1033   1.463       .  S
C752       O1096   1.282       .  A
H763       O1091   0.990       .  S
H764       O1099   0.990   1_554  S
C775        N776   1.354       .  A
C775        N780   1.356       .  A
C775        C889   1.469       .  S
N776        C777   1.356       .  A
C777        N778   1.361       .  A
C777        C902   1.488       .  S
N778        C779   1.361       .  A
C779        N780   1.357       .  A
C779        C873   1.476       .  S
C781        N782   1.355       .  A
C781        N786   1.362       .  A
C781        C937   1.493       .  S
N782        C783   1.351       .  A
C783        N784   1.354       .  A
C783        C921   1.472       .  S
N784        C785   1.357       .  A
C785        N786   1.359       .  A
C785        C854   1.478       .  S
Zr787       O788   2.435       .  S
Zr787       O789   2.418       .  S
Zr787       O790   2.449       .  S
Zr787      O2185   2.422   1_455  S
Zr787       O795   2.378       .  S
Zr787       O796   2.382       .  S
Zr787       O797   2.399       .  S
Zr787      O2190   2.398   1_455  S
O788        H844   0.990       .  S
O788        H852   0.989       .  S
O789        C809   1.279       .  A
O790        C811   1.287       .  A
O791       Zr801   2.442       .  S
O791        C810   1.287       .  A
O792       Zr800   2.421       .  S
O792        C811   1.284       .  A
O793      Zr2179   2.421       .  S
O793        C810   1.282       .  A
O794        C809   1.282       .  A
O795       Zr800   2.385       .  S
O796      Zr2193   2.383   1_455  S
O796        H831   0.966       .  S
O797       Zr800   2.396       .  S
O797      Zr2209   2.396   1_455  S
O797        H834   0.966       .  S
O798      Zr2179   2.397       .  S
O798       Zr801   2.392       .  S
O798       Zr817   2.393       .  S
Zr799      O2210   2.428       .  S
Zr799      O1522   2.429       .  S
Zr799       O814   2.434   1_655  S
Zr799      O2197   2.400       .  S
Zr799       O806   2.401   1_655  S
Zr799       O807   2.377   1_655  S
Zr799      O2200   2.385       .  S
Zr800       O819   2.435       .  S
Zr800       O812   2.434       .  S
Zr800       O813   2.416       .  S
Zr800       O806   2.394       .  S
Zr800       O807   2.389       .  S
Zr801       O803   2.435       .  S
Zr801       O827   2.423       .  S
Zr801      O2188   2.388       .  S
Zr801       O805   2.399       .  S
Zr801       O808   2.391       .  S
Zr802       O828   2.434       .  S
Zr802       O829   2.436       .  S
Zr802       O804   2.437       .  S
Zr802      O1501   2.386   1_455  S
O803        H840   0.990       .  S
O804        H835   0.990       .  S
O805      Zr2191   2.401       .  S
O805      Zr1498   2.394       .  S
O806        H832   0.966       .  S
O807      Zr2209   2.376   1_455  S
O808      Zr2191   2.382       .  S
O808       Zr817   2.378       .  S
O808        H833   0.966       .  S
C809        C953   1.489       .  S
C810       C1001   1.493       .  S
C811        C870   1.491       .  S
O812        H848   0.990       .  S
O813        C815   1.280       .  A
O814        C815   1.286       .  A
C815        C969   1.483       .  S
O816       Zr817   2.438       .  S
O816        H845   0.990       .  S
Zr817      O2212   2.438       .  S
Zr817       O821   2.439       .  S
Zr817       O822   2.411       .  S
Zr817      O2189   2.394       .  S
Zr817      O2199   2.373       .  S
O818      Zr2191   2.428       .  S
O818        C823   1.282       .  A
O819        H836   0.990       .  S
O819        H851   0.990       .  S
O820      Zr2209   2.437   1_455  S
O820        H837   0.990       .  S
O821        H841   0.990       .  S
O821        H850   0.990       .  S
O822        C823   1.281       .  A
C823       C1014   1.474       .  S
O824       H2235   0.990   1_655  S
O824        H847   0.990       .  S
O825        H839   0.990       .  S
O825        H846   0.990       .  S
O826      Zr1495   2.431   1_565  S
O826        C830   1.284       .  A
O828        H838   0.990   1_455  S
O829        H842   0.990       .  S
C830        C857   1.469       .  S
H843       O2216   0.990       .  S
C853        C854   1.404       .  A
C853        C858   1.399       .  A
C853        H860   1.083       .  S
C854        C855   1.416       .  A
C855        C856   1.406       .  A
C855        C862   1.507       .  S
C856        C857   1.401       .  A
C856        H861   1.084       .  S
C857        C858   1.410       .  A
C858        C859   1.508       .  S
C859        H863   1.111       .  S
C859        H864   1.111       .  S
C859        H865   1.109       .  S
C862        H866   1.109       .  S
C862        H867   1.110       .  S
C862        H868   1.111       .  S
C869        C870   1.407       .  A
C869        C874   1.402       .  A
C869        H876   1.084       .  S
C870        C871   1.420       .  A
C871        C872   1.406       .  A
C871        C878   1.504       .  S
C872        C873   1.401       .  A
C872        H877   1.084       .  S
C873        C874   1.410       .  A
C874        C875   1.505       .  S
C875        H879   1.111       .  S
C875        H880   1.103       .  S
C875        H881   1.110       .  S
C878        H882   1.110       .  S
C878        H883   1.108       .  S
C878        H884   1.111       .  S
C885        C886   1.408       .  A
C885        C890   1.399       .  A
C885        H892   1.084       .  S
C886        C887   1.421       .  A
C887        C888   1.402       .  A
C887        C894   1.510       .  S
C888        C889   1.400       .  A
C888        H893   1.084       .  S
C889        C890   1.409       .  A
C890        C891   1.508       .  S
C891        H895   1.111       .  S
C891        H896   1.111       .  S
C891        H897   1.109       .  S
C894        H898   1.110       .  S
C894        H899   1.110       .  S
C894        H900   1.111       .  S
C901        C902   1.408       .  A
C901        C906   1.402       .  A
C901        H908   1.084       .  S
C902        C903   1.416       .  A
C903        C904   1.403       .  A
C903        C910   1.504       .  S
C904        C905   1.403       .  A
C904        H909   1.084       .  S
C905        C906   1.412       .  A
C906        C907   1.507       .  S
C907        H911   1.110       .  S
C907        H912   1.111       .  S
C907        H913   1.109       .  S
C910        H914   1.110       .  S
C910        H915   1.109       .  S
C910        H916   1.111       .  S
C917        C918   1.402       .  A
C917        C922   1.399       .  A
C917        H924   1.084       .  S
C918        C919   1.413       .  A
C919        C920   1.404       .  A
C919        C926   1.507       .  S
C920        C921   1.404       .  A
C920        H925   1.084       .  S
C921        C922   1.413       .  A
C922        C923   1.508       .  S
C923        H927   1.111       .  S
C923        H928   1.111       .  S
C923        H929   1.109       .  S
C926        H930   1.110       .  S
C926        H931   1.109       .  S
C926        H932   1.111       .  S
C933        C934   1.401       .  A
C933        C938   1.398       .  A
C933        H940   1.083       .  S
C934        C935   1.415       .  A
C935        C936   1.404       .  A
C935        C942   1.508       .  S
C936        C937   1.409       .  A
C936        H941   1.083       .  S
C937        C938   1.424       .  A
C938        C939   1.511       .  S
C939        H943   1.109       .  S
C939        H944   1.110       .  S
C939        H945   1.110       .  S
C942        H946   1.109       .  S
C942        H947   1.111       .  S
C942        H948   1.111       .  S
C949        C950   1.397       .  A
C949        C954   1.403       .  A
C949        H956   1.084       .  S
C951        C958   1.510       .  S
C952        C953   1.409       .  A
C952        H957   1.083       .  S
C953        C954   1.424       .  A
C954        C955   1.509       .  S
C955        H959   1.111       .  S
C955        H960   1.111       .  S
C955        H961   1.109       .  S
C958        H962   1.110       .  S
C958        H963   1.110       .  S
C958        H964   1.111       .  S
C965        C970   1.401       .  A
C967        C968   1.400       .  A
C968        C969   1.404       .  A
C968        H973   1.082       .  S
C969        C970   1.420       .  A
C970        C971   1.509       .  S
C971        H975   1.111       .  S
C971        H976   1.109       .  S
C974        H979   1.110       .  S
C981        C982   1.404       .  A
C981        C986   1.409       .  A
C981        H988   1.084       .  S
C982        C983   1.414       .  A
C983        C984   1.400       .  A
C983        C990   1.509       .  S
C984        C985   1.406       .  A
C984        H989   1.084       .  S
C985        C986   1.419       .  A
C986        C987   1.505       .  S
C987        H991   1.111       .  S
C987        H992   1.110       .  S
C987        H993   1.109       .  S
C990        H994   1.108       .  S
C990        H995   1.110       .  S
C990        H996   1.111       .  S
C997        C998   1.399       .  A
C997       C1002   1.400       .  A
C997       H1004   1.085       .  S
C998        C999   1.412       .  A
C999       C1000   1.409       .  A
C999       C1006   1.505       .  S
C1000      C1001   1.410       .  A
C1000      H1005   1.084       .  S
C1001      C1002   1.422       .  A
C1002      C1003   1.510       .  S
C1003      H1007   1.111       .  S
C1003      H1008   1.111       .  S
C1003      H2401   1.107       .  S
C1006      H1010   1.111       .  S
C1006      H1011   1.105       .  S
C1006      H1012   1.111       .  S
H1009      C2395   1.108   1_455  S
C1013      C1014   1.400       .  A
C1013      C1018   1.400       .  A
C1013      H1020   1.085       .  S
C1014      C1015   1.411       .  A
C1015      C1016   1.402       .  A
C1015      C1022   1.508       .  S
C1016      C1017   1.409       .  A
C1016      H1021   1.083       .  S
C1017      C1018   1.422       .  A
C1018      C1019   1.510       .  S
C1019      H1023   1.111       .  S
C1019      H1024   1.110       .  S
C1019      H1025   1.110       .  S
C1022      H1026   1.111       .  S
C1022      H1027   1.109       .  S
C1022      H1028   1.111       .  S
C1029      C1378   1.404       .  A
C1029      C1034   1.396       .  A
C1029      H1036   1.085       .  S
C1030      C1377   1.405   1_554  A
C1030      C1031   1.414       .  A
C1031      C1032   1.406       .  A
C1031      C1038   1.503       .  S
C1032      C1381   1.403       .  A
C1032      H1037   1.084       .  S
C1033      C1380   1.401       .  A
C1033      C1034   1.409       .  A
C1034      C1035   1.508       .  S
C1035      H1039   1.111       .  S
C1035      H1388   1.110       .  S
C1035      H1041   1.109       .  S
C1038      H1042   1.108       .  S
C1038      H1391   1.110       .  S
C1038      H1044   1.111       .  S
H1040      C1383   1.111       .  S
H1043      C1386   1.110       .  S
C1045      N1050   1.362       .  A
C1045      C1346   1.485       .  S
N1046      C1047   1.357       .  A
C1047      N1048   1.352       .  A
C1047      C1365   1.492       .  S
C1049      N1050   1.359       .  A
C1049      C1378   1.471       .  S
C1051      N1052   1.363       .  A
C1051      C1314   1.478       .  S
N1052      C1053   1.361       .  A
C1053      C1330   1.477       .  S
N1054      C1055   1.353       .  A
Zr1057     O1058   2.436       .  S
Zr1057     O1059   2.419       .  S
Zr1057     O1060   2.431       .  S
Zr1057     O1063   2.427       .  S
Zr1057     O1065   2.377       .  S
Zr1057     O1066   2.381       .  S
Zr1057     O1067   2.405       .  S
Zr1057     O1068   2.396       .  S
O1058      H1114   0.990       .  S
O1058      H1122   0.990       .  S
O1059      C1079   1.283       .  A
O1060      C1081   1.283       .  A
O1061     Zr1071   2.425       .  S
O1061      C1080   1.284       .  A
O1062     Zr1070   2.425       .  S
O1063      C1080   1.284       .  A
O1064     Zr1072   2.412       .  S
O1064      C1079   1.278       .  A
O1065     Zr1072   2.370       .  S
O1066     Zr1071   2.387       .  S
O1066     Zr1072   2.378       .  S
O1066      H1101   0.966       .  S
O1067      H1104   0.966       .  S
O1068     Zr1071   2.387       .  S
Zr1069     O1094   2.445       .  S
Zr1069     O1088   2.426       .  S
Zr1069     O1096   2.421       .  S
Zr1069     O1084   2.422       .  S
Zr1069     O1076   2.400       .  S
Zr1069     O1077   2.375       .  S
Zr1069     O1078   2.379       .  S
Zr1070     O1089   2.434       .  S
Zr1070     O1082   2.435       .  S
Zr1070     O1083   2.429       .  S
Zr1070     O1076   2.397       .  S
Zr1070     O1077   2.381       .  S
Zr1071     O1073   2.435       .  S
Zr1071     O1095   2.437       .  S
Zr1071     O1097   2.424       .  S
Zr1071     O1075   2.390       .  S
Zr1072     O1098   2.436       .  S
Zr1072     O1099   2.435       .  S
Zr1072     O1074   2.437       .  S
Zr1072     O1075   2.393       .  S
O1073      H1110   0.990       .  S
O1074      H1105   0.990       .  S
O1074      H1119   0.990       .  S
O1076      H1102   0.967       .  S
O1077     Zr1087   2.375       .  S
O1078     Zr1087   2.374       .  S
O1078      H1103   0.966       .  S
C1079      C1282   1.490       .  S
C1080      C1253   1.481       .  S
C1081      C1333   1.486       .  S
O1082      H1118   0.990       .  S
O1083      C1085   1.283       .  A
O1084      C1085   1.283       .  A
C1085      C1266   1.470       .  S
O1086      H1115   0.990       .  S
Zr1087     O1090   2.437       .  S
Zr1087     O1092   2.421       .  S
O1088      C1093   1.283       .  A
O1089      H1106   0.990       .  S
O1089      H1121   0.990       .  S
O1090      H1107   0.990       .  S
O1091      H1120   0.990       .  S
O1092      C1093   1.282       .  A
C1093      C1234   1.476       .  S
O1094      H1113   0.990       .  S
O1094      H1117   0.990       .  S
O1095      H1109   0.990       .  S
O1095      H1116   0.990       .  S
O1097      C1100   1.283   1_556  A
O1098      H1108   0.990       .  S
C1100      C1381   1.473       .  S
C1123      N1124   1.358       .  A
C1123      N1128   1.358       .  A
C1123      C1237   1.492       .  S
N1124      C1125   1.357       .  A
C1125      N1126   1.357       .  A
C1125      C1250   1.488       .  S
N1126      C1127   1.357       .  A
C1127      N1128   1.357       .  A
C1127      C1221   1.471       .  S
C1129      N1130   1.359       .  A
C1129      N1134   1.358       .  A
C1129      C1285   1.483       .  S
N1130      C1131   1.357       .  A
C1131      N1132   1.353       .  A
C1131      C1269   1.475       .  S
N1132      C1133   1.354       .  A
C1133      N1134   1.352       .  A
C1133      C1202   1.469       .  S
Zr1135     O1136   2.434       .  S
Zr1135     O1137   2.418       .  S
Zr1135     O1138   2.438       .  S
Zr1135     O2533   2.422   1_455  S
Zr1135     O1143   2.377       .  S
Zr1135     O1144   2.383       .  S
Zr1135     O1145   2.398       .  S
Zr1135     O2538   2.396   1_455  S
O1136      H1192   0.990       .  S
O1136      H1200   0.989       .  S
O1137      C1157   1.280       .  A
O1138      C1159   1.285       .  A
O1139     Zr1149   2.415       .  S
O1139      C1158   1.281       .  A
O1140     Zr1148   2.423       .  S
O1140      C1159   1.284       .  A
O1141     Zr2527   2.426       .  S
O1141      C1158   1.284       .  A
O1142      C1157   1.281       .  A
O1143     Zr1148   2.384       .  S
O1144     Zr2541   2.387   1_455  S
O1144      H1179   0.966       .  S
O1145     Zr1148   2.394       .  S
O1145     Zr2557   2.394   1_455  S
O1145      H1182   0.967       .  S
O1146     Zr2527   2.400       .  S
O1146     Zr1149   2.394       .  S
O1146     Zr1165   2.393       .  S
Zr1147     O2558   2.427       .  S
Zr1147     O1870   2.429       .  S
Zr1147     O1162   2.425   1_655  S
Zr1147     O2545   2.398       .  S
Zr1147     O1154   2.400   1_655  S
Zr1147     O1155   2.378   1_655  S
Zr1147     O2548   2.382       .  S
Zr1148     O1167   2.435       .  S
Zr1148     O1160   2.435       .  S
Zr1148     O1161   2.421       .  S
Zr1148     O1154   2.396       .  S
Zr1148     O1155   2.387       .  S
Zr1149     O1151   2.436       .  S
Zr1149     O1175   2.422       .  S
Zr1149     O2536   2.389       .  S
Zr1149     O1153   2.384       .  S
Zr1149     O1156   2.384       .  S
Zr1150     O1176   2.435       .  S
Zr1150     O1177   2.436       .  S
Zr1150     O1152   2.436       .  S
Zr1150     O1849   2.392   1_455  S
O1151      H1188   0.990       .  S
O1152      H1183   0.990       .  S
O1153     Zr2539   2.399       .  S
O1153     Zr1846   2.391       .  S
O1154      H1180   0.966       .  S
O1155     Zr2557   2.371   1_455  S
O1156     Zr2539   2.380       .  S
O1156     Zr1165   2.377       .  S
O1156      H1181   0.966       .  S
C1157      C1301   1.487       .  S
C1158      C1349   1.472       .  S
C1159      C1218   1.483       .  S
O1160      H1196   0.990       .  S
O1161      C1163   1.282       .  A
O1162      C1163   1.285       .  A
C1163      C1317   1.479       .  S
O1164     Zr1165   2.439       .  S
O1164      H1193   0.990       .  S
Zr1165     O2560   2.437       .  S
Zr1165     O1169   2.439       .  S
Zr1165     O1170   2.420       .  S
Zr1165     O2537   2.396       .  S
Zr1165     O2547   2.379       .  S
O1166     Zr2539   2.432       .  S
O1166      C1171   1.284       .  A
O1167      H1184   0.990       .  S
O1167      H1199   0.990       .  S
O1168     Zr2557   2.437   1_455  S
O1168      H1185   0.990   1_455  S
O1169      H1189   0.990       .  S
O1169      H1198   0.990       .  S
O1170      C1171   1.282       .  A
C1171      C1362   1.477       .  S
O1172      H2583   0.991       .  S
O1172      H1195   0.990   1_655  S
O1173      H1187   0.990       .  S
O1173      H1194   0.990       .  S
O1174     Zr1843   2.415   1_565  S
O1174      C1178   1.281       .  A
O1176      H1186   0.990       .  S
O1177      H1190   0.990       .  S
C1178      C1205   1.457       .  S
H1191      O2564   0.990       .  S
C1201      C1202   1.403       .  A
C1201      C1206   1.395       .  A
C1201      H1208   1.084       .  S
C1202      C1203   1.415       .  A
C1203      C1204   1.403       .  A
C1203      C1210   1.507       .  S
C1204      C1205   1.400       .  A
C1204      H1209   1.084       .  S
C1205      C1206   1.407       .  A
C1206      C1207   1.508       .  S
C1207      H1211   1.111       .  S
C1207      H1212   1.111       .  S
C1207      H1213   1.110       .  S
C1210      H1214   1.110       .  S
C1210      H1215   1.110       .  S
C1210      H1216   1.111       .  S
C1217      C1218   1.406       .  A
C1217      C1222   1.402       .  A
C1217      H1224   1.084       .  S
C1218      C1219   1.417       .  A
C1219      C1220   1.403       .  A
C1219      C1226   1.504       .  S
C1220      C1221   1.400       .  A
C1220      H1225   1.084       .  S
C1221      C1222   1.410       .  A
C1222      C1223   1.506       .  S
C1223      H1227   1.111       .  S
C1223      H1228   1.107       .  S
C1223      H1229   1.110       .  S
C1226      H1230   1.110       .  S
C1226      H1231   1.107       .  S
C1226      H1232   1.111       .  S
C1233      C1234   1.402       .  A
C1233      C1238   1.405       .  A
C1233      H1240   1.084       .  S
C1234      C1235   1.412       .  A
C1235      C1236   1.400       .  A
C1235      C1242   1.509       .  S
C1236      C1237   1.409       .  A
C1236      H1241   1.083       .  S
C1237      C1238   1.421       .  A
C1238      C1239   1.508       .  S
C1239      H1243   1.111       .  S
C1239      H1244   1.110       .  S
C1239      H1245   1.110       .  S
C1242      H1246   1.109       .  S
C1242      H1247   1.110       .  S
C1242      H1248   1.111       .  S
C1249      C1250   1.408       .  A
C1249      C1254   1.403       .  A
C1249      H1256   1.084       .  S
C1250      C1251   1.417       .  A
C1251      C1252   1.403       .  A
C1251      C1258   1.507       .  S
C1252      C1253   1.404       .  A
C1252      H1257   1.084       .  S
C1253      C1254   1.414       .  A
C1254      C1255   1.509       .  S
C1255      H1259   1.111       .  S
C1255      H1260   1.110       .  S
C1255      H1261   1.109       .  S
C1258      H1262   1.110       .  S
C1258      H1263   1.109       .  S
C1258      H1264   1.111       .  S
C1265      C1266   1.400       .  A
C1265      C1270   1.398       .  A
C1265      H1272   1.085       .  S
C1266      C1267   1.412       .  A
C1267      C1268   1.404       .  A
C1267      C1274   1.506       .  S
C1268      C1269   1.404       .  A
C1268      H1273   1.084       .  S
C1269      C1270   1.416       .  A
C1270      C1271   1.509       .  S
C1271      H1275   1.111       .  S
C1271      H1276   1.110       .  S
C1271      H1277   1.109       .  S
C1274      H1278   1.108       .  S
C1274      H1279   1.109       .  S
C1274      H1280   1.111       .  S
C1281      C1282   1.409       .  A
C1281      C1286   1.401       .  A
C1281      H1288   1.083       .  S
C1282      C1283   1.422       .  A
C1283      C1284   1.399       .  A
C1283      C1290   1.511       .  S
C1284      C1285   1.404       .  A
C1284      H1289   1.084       .  S
C1285      C1286   1.415       .  A
C1286      C1287   1.509       .  S
C1287      H1291   1.111       .  S
C1287      H1292   1.109       .  S
C1287      H1293   1.110       .  S
C1290      H1294   1.110       .  S
C1290      H1295   1.110       .  S
C1290      H1296   1.111       .  S
C1297      C1298   1.399       .  A
C1297      C1302   1.403       .  A
C1297      H1304   1.084       .  S
C1299      C1306   1.510       .  S
C1300      C1301   1.408       .  A
C1300      H1305   1.083       .  S
C1301      C1302   1.422       .  A
C1302      C1303   1.509       .  S
C1303      H1307   1.111       .  S
C1303      H1308   1.111       .  S
C1303      H1309   1.108       .  S
C1306      H1310   1.109       .  S
C1306      H1311   1.111       .  S
C1306      H1312   1.111       .  S
C1313      C1318   1.402       .  A
C1315      C1316   1.398       .  A
C1316      C1317   1.401       .  A
C1316      H1321   1.082       .  S
C1317      C1318   1.417       .  A
C1318      C1319   1.508       .  S
C1319      H1323   1.111       .  S
C1319      H1324   1.109       .  S
C1322      H1327   1.111       .  S
C1329      C1330   1.403       .  A
C1329      C1334   1.406       .  A
C1329      H1336   1.084       .  S
C1330      C1331   1.414       .  A
C1331      C1332   1.399       .  A
C1331      C1338   1.509   1_556  S
C1332      C1333   1.405       .  A
C1332      H1337   1.084   1_556  S
C1333      C1334   1.418       .  A
C1334      C1335   1.505       .  S
C1335      H1339   1.111       .  S
C1335      H1340   1.110       .  S
C1335      H1341   1.109       .  S
C1338      H1342   1.108       .  S
C1338      H1343   1.110   1_554  S
C1338      H1344   1.111       .  S
C1345      C1346   1.407       .  A
C1345      C1350   1.398       .  A
C1345      H1352   1.084       .  S
C1346      C1347   1.417       .  A
C1347      C1348   1.403       .  A
C1347      C1354   1.504       .  S
C1348      C1349   1.402       .  A
C1348      H1353   1.084       .  S
C1349      C1350   1.411       .  A
C1350      C1351   1.509       .  S
C1351      H1355   1.111       .  S
C1351      H1356   1.111       .  S
C1351      H2749   1.108       .  S
C1354      H1358   1.111       .  S
C1354      H1359   1.108       .  S
C1354      H1360   1.111       .  S
H1357      C2743   1.109   1_455  S
C1361      C1362   1.401       .  A
C1361      C1366   1.403       .  A
C1361      H1368   1.085       .  S
C1362      C1363   1.411       .  A
C1363      C1364   1.404       .  A
C1363      C1370   1.507       .  S
C1364      C1365   1.409       .  A
C1364      H1369   1.083       .  S
C1365      C1366   1.423       .  A
C1366      C1367   1.510       .  S
C1367      H1371   1.111       .  S
C1367      H1372   1.109       .  S
C1367      H1373   1.111       .  S
C1370      H1374   1.111       .  S
C1370      H1375   1.110       .  S
C1370      H1376   1.111       .  S
C1377      C1382   1.400       .  A
C1377      H1384   1.084       .  S
C1378      C1379   1.413       .  A
C1379      C1380   1.403       .  A
C1379      C1386   1.504       .  S
C1380      H1385   1.084       .  S
C1381      C1382   1.412   1_554  A
C1382      C1383   1.509       .  S
C1383      H1387   1.111       .  S
C1383      H1389   1.109       .  S
C1386      H1390   1.105       .  S
C1386      H1392   1.111       .  S
C1393      N1742   1.361       .  A
C1393      N1398   1.360       .  A
C1393      C1694   1.483       .  S
N1394      C1741   1.358       .  A
N1394      C1395   1.356       .  A
C1395      N1396   1.354       .  A
C1395      C1713   1.485       .  S
N1396      C1745   1.356       .  A
C1397      N1744   1.354   1_554  A
C1397      N1398   1.357       .  A
C1397      C1726   1.471       .  S
C1399      N1400   1.361       .  A
C1399      N2100   1.355       .  A
C1399      C1662   1.476       .  S
N1400      C1401   1.360       .  A
C1401      N1750   1.354       .  A
C1401      C1678   1.475       .  S
N1402      C1749   1.354       .  A
N1402      C1403   1.350   1_556  A
C1403      N2448   1.351   1_554  A
C1403      C2342   1.468       .  S
N1404      C2095   1.354       .  A
N1404      C2447   1.348       .  A
Zr1405     O1406   2.435       .  S
Zr1405     O1407   2.407       .  S
Zr1405     O1408   2.428       .  S
Zr1405     O1411   2.422       .  S
Zr1405     O1413   2.375       .  S
Zr1405     O1414   2.382       .  S
Zr1405     O1415   2.400       .  S
Zr1405     O1416   2.390       .  S
O1406      H1462   0.990       .  S
O1406      H1470   0.990       .  S
O1407      C1427   1.281       .  A
O1408      C1429   1.283       .  A
O1409     Zr1419   2.428       .  S
O1409      C1428   1.285       .  A
O1410     Zr1418   2.428   1_556  S
O1410      C1777   1.286       .  A
O1411      C1428   1.283       .  A
O1412     Zr1420   2.423       .  S
O1412      C1427   1.282       .  A
O1413     Zr1766   2.382       .  S
O1413     Zr1420   2.370       .  S
O1414     Zr1419   2.383       .  S
O1414     Zr1420   2.376       .  S
O1414      H1449   0.966       .  S
O1415     Zr1766   2.389       .  S
O1415     Zr1783   2.400       .  S
O1415      H1452   0.966       .  S
O1416     Zr1419   2.386       .  S
O1416     Zr1783   2.388       .  S
Zr1417     O1442   2.444       .  S
Zr1417     O1436   2.412       .  S
Zr1417     O1444   2.420       .  S
Zr1417     O1432   2.415       .  S
Zr1417     O1771   2.393   1_554  S
Zr1417     O1424   2.398       .  S
Zr1417     O1425   2.379       .  S
Zr1417     O1426   2.377       .  S
Zr1418     O1437   2.435       .  S
Zr1418     O1430   2.435       .  S
Zr1418     O1431   2.433       .  S
Zr1418     O1761   2.386   1_554  S
Zr1418     O1763   2.396   1_554  S
Zr1418     O1424   2.395       .  S
Zr1418     O1425   2.385       .  S
Zr1419     O1421   2.435       .  S
Zr1419     O1443   2.439       .  S
Zr1419     O1445   2.418       .  S
Zr1419     O1423   2.388       .  S
Zr1419     O1774   2.388       .  S
Zr1420     O1446   2.436       .  S
Zr1420     O1447   2.436       .  S
Zr1420     O1422   2.435       .  S
Zr1420     O1423   2.392       .  S
Zr1420     O1772   2.392       .  S
O1421      H1458   0.990       .  S
O1422      H1453   0.990       .  S
O1422      H1467   0.990       .  S
O1423     Zr1765   2.397       .  S
O1424     Zr1768   2.390   1_554  S
O1424      H1450   0.967       .  S
O1425     Zr1435   2.372       .  S
O1426     Zr1767   2.383   1_554  S
O1426     Zr1435   2.379       .  S
O1426      H1451   0.966       .  S
C1427      C1630   1.482       .  S
C1428      C1601   1.485       .  S
C1429      C1681   1.489       .  S
C1429      O1758   1.286       .  A
O1430      H1466   0.990       .  S
O1431      C1433   1.284       .  A
O1432      C1433   1.282       .  A
C1433      C1614   1.469       .  S
O1434     Zr1783   2.440       .  S
O1434      H1463   0.990       .  S
Zr1435     O1782   2.440   1_554  S
Zr1435     O1438   2.437       .  S
Zr1435     O1787   2.439   1_554  S
Zr1435     O1440   2.425       .  S
Zr1435     O1763   2.398   1_554  S
Zr1435     O1764   2.395   1_554  S
O1436      C1441   1.280       .  A
O1437      H1454   0.990       .  S
O1437      H1469   0.990       .  S
O1438      H1455   0.990       .  S
O1439     Zr1783   2.439       .  S
O1439      H1807   0.990       .  S
O1439      H1468   0.990       .  S
O1440      C1441   1.284       .  A
C1441      C1582   1.482       .  S
O1442      H1461   0.990       .  S
O1442      H1465   0.990       .  S
O1443      H1457   0.990       .  S
O1443      H1464   0.990       .  S
O1444      C1796   1.281       .  A
O1445      C1448   1.282       .  A
O1446      H1456   0.990       .  S
O1447      H1808   0.990       .  S
C1448      C1729   1.466       .  S
C1448      O1792   1.283       .  A
H1459      O1787   0.990   1_554  S
H1460      O1795   0.990       .  S
C1471      N1472   1.359       .  A
C1471      N1476   1.354       .  A
C1471      C1585   1.492       .  S
N1472      C1473   1.358       .  A
C1473      N1474   1.358       .  A
C1473      C1598   1.484       .  S
N1474      C1475   1.357       .  A
C1475      N1476   1.352       .  A
C1475      C1569   1.465       .  S
C1477      N1478   1.356       .  A
C1477      N1482   1.359       .  A
C1477      C1633   1.490       .  S
N1478      C1479   1.353       .  A
C1479      N1480   1.354       .  A
C1479      C1617   1.474       .  S
N1480      C1481   1.357       .  A
C1481      N1482   1.355       .  A
C1481      C1550   1.476       .  S
Zr1483     O1484   2.436       .  S
Zr1483     O1485   2.424       .  S
Zr1483     O1486   2.443       .  S
Zr1483     O1491   2.378       .  S
Zr1483     O1492   2.382       .  S
Zr1483     O1493   2.399       .  S
O1484      H1540   0.990       .  S
O1484      H1548   0.989       .  S
O1485      C1505   1.281       .  A
O1486      C1507   1.285       .  A
O1487     Zr1497   2.417       .  S
O1487      C1506   1.282       .  A
O1488     Zr1496   2.414       .  S
O1488      C1507   1.282       .  A
O1489      C1506   1.283       .  A
O1490     Zr2194   2.408       .  S
O1490      C1505   1.281   1_565  A
O1491     Zr1496   2.388       .  S
O1491     Zr2194   2.374   1_545  S
O1492     Zr2194   2.376   1_545  S
O1492      H1527   0.966       .  S
O1493     Zr1496   2.395       .  S
O1493      H1530   0.967       .  S
O1494     Zr1497   2.388       .  S
O1494     Zr1513   2.396       .  S
Zr1495     O2216   2.440   1_545  S
Zr1495     O1510   2.435       .  S
Zr1495     O1502   2.403       .  S
Zr1495     O1503   2.378       .  S
Zr1496     O1515   2.436       .  S
Zr1496     O1508   2.435       .  S
Zr1496     O1509   2.414       .  S
Zr1496     O1502   2.396       .  S
Zr1496     O1503   2.388       .  S
Zr1497     O1499   2.435       .  S
Zr1497     O2217   2.438   1_545  S
Zr1497     O1523   2.410   1_545  S
Zr1497     O1501   2.388   1_545  S
Zr1497     O1504   2.385       .  S
Zr1498     O1524   2.435       .  S
Zr1498     O1525   2.436       .  S
Zr1498     O1500   2.438       .  S
Zr1498     O2186   2.407       .  S
Zr1498     O2187   2.372       .  S
Zr1498     O2188   2.374       .  S
Zr1498     O2198   2.384       .  S
O1499      H1536   0.990       .  S
O1500      H1531   0.990       .  S
O1500      H2241   0.990       .  S
O1502     Zr2194   2.385   1_545  S
O1502      H1528   0.966   1_545  S
O1504     Zr1513   2.378       .  S
O1504      H1529   0.966       .  S
C1505      C1649   1.488       .  S
C1506      C1697   1.479       .  S
C1507      C1566   1.480       .  S
O1508      H1544   0.990       .  S
O1509      C1511   1.280       .  A
O1510      C1511   1.286       .  A
C1511      C1665   1.481       .  S
O1512     Zr1513   2.438       .  S
O1512      H1541   0.990       .  S
Zr1513     O1517   2.439       .  S
Zr1513     O1518   2.428       .  S
O1514      C1519   1.281       .  A
O1515      H1532   0.990       .  S
O1515      H1547   0.990       .  S
O1516      H1533   0.990       .  S
O1517      H1537   0.990       .  S
O1517      H1546   0.990       .  S
O1518      C1519   1.282       .  A
C1519      C1710   1.472       .  S
O1520     Zr2191   2.440       .  S
O1520      H1543   0.990       .  S
O1521     Zr2193   2.439       .  S
O1521      H1535   0.990       .  S
O1521      H1542   0.990       .  S
O1522      C1526   1.283       .  A
O1523      C2222   1.280       .  A
O1524      H1534   0.990       .  S
O1525      H1538   0.990       .  S
C1526      C1553   1.463       .  S
C1526      O2219   1.281       .  A
H1545      O2196   0.990       .  S
C1549      C1550   1.402       .  A
C1549      C1554   1.395       .  A
C1549      H1556   1.082       .  S
C1550      C1551   1.418       .  A
C1551      C1552   1.405       .  A
C1551      C1558   1.507       .  S
C1552      C1553   1.400       .  A
C1552      H1557   1.084       .  S
C1553      C1554   1.410       .  A
C1554      C1555   1.509       .  S
C1555      H1559   1.111       .  S
C1555      H1560   1.111       .  S
C1555      H1561   1.108       .  S
C1558      H1562   1.109       .  S
C1558      H1563   1.110       .  S
C1558      H1564   1.111       .  S
C1565      C1566   1.408       .  A
C1565      C1570   1.402       .  A
C1565      H1572   1.084       .  S
C1566      C1567   1.416       .  A
C1567      C1568   1.401       .  A
C1567      C1574   1.504       .  S
C1568      C1569   1.399       .  A
C1568      H1573   1.085       .  S
C1569      C1570   1.407       .  A
C1570      C1571   1.506       .  S
C1571      H1575   1.111       .  S
C1571      H1576   1.108       .  S
C1571      H1577   1.110       .  S
C1574      H1578   1.110       .  S
C1574      H1579   1.107       .  S
C1574      H1580   1.111       .  S
C1581      C1582   1.403       .  A
C1581      C1586   1.402       .  A
C1581      H1588   1.084       .  S
C1582      C1583   1.416       .  A
C1583      C1584   1.400       .  A
C1583      C1590   1.511       .  S
C1584      C1585   1.408       .  A
C1584      H1589   1.083       .  S
C1585      C1586   1.423       .  A
C1586      C1587   1.510       .  S
C1587      H1591   1.111       .  S
C1587      H1592   1.110       .  S
C1587      H1593   1.110       .  S
C1590      H1594   1.111       .  S
C1590      H1595   1.110       .  S
C1590      H1596   1.111       .  S
C1597      C1598   1.405       .  A
C1597      C1602   1.403       .  A
C1597      H1604   1.084       .  S
C1598      C1599   1.415       .  A
C1599      C1600   1.403       .  A
C1599      C1606   1.507       .  S
C1600      C1601   1.406       .  A
C1600      H1605   1.084       .  S
C1601      C1602   1.417       .  A
C1602      C1603   1.509       .  S
C1603      H1607   1.111       .  S
C1603      H1608   1.110       .  S
C1603      H1609   1.109       .  S
C1606      H1610   1.110       .  S
C1606      H1611   1.109       .  S
C1606      H1612   1.111       .  S
C1613      C1614   1.400       .  A
C1613      C1618   1.398       .  A
C1613      H1620   1.084       .  S
C1614      C1615   1.410       .  A
C1615      C1616   1.405       .  A
C1615      C1622   1.506       .  S
C1616      C1617   1.406       .  A
C1616      H1621   1.084       .  S
C1617      C1618   1.414       .  A
C1618      C1619   1.508       .  S
C1619      H1623   1.111       .  S
C1619      H1624   1.111       .  S
C1619      H1625   1.108       .  S
C1622      H1626   1.111       .  S
C1622      H1627   1.109       .  S
C1622      H1628   1.111       .  S
C1629      C1630   1.404       .  A
C1629      C1634   1.399       .  A
C1629      H1636   1.083       .  S
C1630      C1631   1.415       .  A
C1631      C1632   1.401       .  A
C1631      C1638   1.509       .  S
C1632      C1633   1.409       .  A
C1632      H1637   1.083       .  S
C1633      C1634   1.421       .  A
C1634      C1635   1.511       .  S
C1635      H1639   1.111       .  S
C1635      H1640   1.110       .  S
C1635      H1641   1.110       .  S
C1638      H1642   1.109       .  S
C1638      H1643   1.110       .  S
C1638      H1644   1.111       .  S
C1645      C1646   1.399   1_545  A
C1645      C1650   1.404       .  A
C1645      H1652   1.084       .  S
C1646      C2099   1.466       .  S
C1646      C2343   1.408       .  A
C1647      C2342   1.409       .  A
C1647      C2344   1.395       .  A
C1647      C1654   1.510       .  S
C1648      C2343   1.396       .  A
C1648      C1649   1.409   1_565  A
C1648      H1653   1.083       .  S
C1649      C1650   1.422       .  A
C1650      C1651   1.509       .  S
C1651      H1655   1.111       .  S
C1651      H1656   1.110       .  S
C1651      H1657   1.109       .  S
C1654      H1658   1.109       .  S
C1654      H1659   1.111       .  S
C1654      H1660   1.111       .  S
C1661      C2358   1.401       .  A
C1661      C1666   1.403   1_565  A
C1661      H2364   1.084       .  S
C1662      C2357   1.401       .  A
C1662      C2359   1.417       .  A
C1663      C2358   1.419       .  A
C1663      C1664   1.398   1_565  A
C1663      C2366   1.511       .  S
C1664      C1665   1.401       .  A
C1664      H1669   1.083       .  S
C1665      C1666   1.419       .  A
C1666      C1667   1.507       .  S
C1667      H1671   1.111   1_545  S
C1667      H1672   1.109       .  S
C1667      H2369   1.110   1_545  S
H1668      C2357   1.084       .  S
C1670      C2359   1.510       .  S
C1670      H2370   1.109       .  S
C1670      H1675   1.111       .  S
C1670      H2372   1.111       .  S
H1673      C2363   1.111       .  S
H1674      C2366   1.109   1_545  S
H1676      C2366   1.111       .  S
C1677      C1678   1.401       .  A
C1677      C1682   1.404       .  A
C1677      H1684   1.084       .  S
C1678      C1679   1.412       .  A
C1679      C1680   1.400       .  A
C1679      C1686   1.509       .  S
C1680      C1681   1.406       .  A
C1680      H1685   1.084       .  S
C1681      C1682   1.420       .  A
C1682      C1683   1.505       .  S
C1683      H1687   1.111       .  S
C1683      H1688   1.109       .  S
C1683      H1689   1.109       .  S
C1686      H1690   1.108       .  S
C1686      H1691   1.110       .  S
C1686      H1692   1.111       .  S
C1693      C1694   1.404       .  A
C1693      C1698   1.399       .  A
C1693      H1700   1.084       .  S
C1694      C1695   1.416       .  A
C1695      C1696   1.404       .  A
C1695      C1702   1.505       .  S
C1696      C1697   1.404       .  A
C1696      H1701   1.084       .  S
C1697      C1698   1.414       .  A
C1698      C1699   1.507       .  S
C1699      H1703   1.111   1_655  S
C1699      H1704   1.111   1_655  S
C1702      H1706   1.110       .  S
C1702      H1707   1.108       .  S
C1702      H1708   1.111       .  S
C1709      C1710   1.401       .  A
C1709      C1714   1.406       .  A
C1709      H1716   1.084       .  S
C1710      C1711   1.411       .  A
C1711      C1712   1.400       .  A
C1711      C1718   1.508       .  S
C1712      C1713   1.406       .  A
C1712      H1717   1.084       .  S
C1713      C1714   1.420       .  A
C1714      C1715   1.509       .  S
C1715      H1719   1.111       .  S
C1715      H1720   1.109       .  S
C1715      H1721   1.111       .  S
C1718      H1722   1.111   1_655  S
C1718      H1723   1.109       .  S
C1718      H1724   1.111   1_655  S
C1725      C2074   1.402       .  A
C1725      C1730   1.400       .  A
C1725      H1732   1.085       .  S
C1726      C2073   1.403   1_554  A
C1726      C1727   1.412       .  A
C1727      C1728   1.405       .  A
C1727      C1734   1.505       .  S
C1728      C2077   1.402       .  A
C1728      H1733   1.084       .  S
C1729      C2076   1.400       .  A
C1729      C1730   1.411       .  A
C1730      C1731   1.508       .  S
C1731      H1735   1.111       .  S
C1731      H2084   1.111       .  S
C1731      H1737   1.109       .  S
C1734      H1738   1.107       .  S
C1734      H2087   1.110       .  S
C1734      H1740   1.111       .  S
H1736      C2079   1.110       .  S
H1739      C2082   1.110       .  S
C1741      N1746   1.360       .  A
C1741      C2042   1.480       .  S
N1742      C1743   1.358   1_554  A
C1743      N1744   1.353       .  A
C1743      C2061   1.495       .  S
C1745      N1746   1.359       .  A
C1745      C2074   1.471       .  S
C1747      N1748   1.365       .  A
C1747      N2448   1.357       .  A
C1747      C2010   1.483       .  S
N1748      C1749   1.363       .  A
C1749      C2026   1.482       .  S
N1750      C1751   1.352       .  A
C1751      N2100   1.352       .  A
C1751      C2690   1.469       .  S
N1752      C2443   1.355       .  A
N1752      C2099   1.350   1_556  A
Zr1753     O1754   2.437       .  S
Zr1753     O1755   2.419       .  S
Zr1753     O1756   2.433       .  S
Zr1753     O1759   2.421       .  S
Zr1753     O1761   2.377       .  S
Zr1753     O1762   2.383       .  S
Zr1753     O1763   2.401       .  S
Zr1753     O1764   2.395       .  S
O1754      H1810   0.990       .  S
O1754      H1818   0.990       .  S
O1755      C1775   1.283       .  A
O1756      C1777   1.283       .  A
O1757     Zr1767   2.420       .  S
O1757      C1776   1.283       .  A
O1758     Zr1766   2.428       .  S
O1759      C1776   1.282       .  A
O1760     Zr1768   2.425       .  S
O1760      C1775   1.282       .  A
O1761     Zr1768   2.372       .  S
O1762     Zr1767   2.393       .  S
O1762     Zr1768   2.376       .  S
O1762      H1797   0.966       .  S
O1763      H1800   0.966       .  S
O1764     Zr1767   2.394       .  S
Zr1765     O1790   2.447       .  S
Zr1765     O1784   2.417       .  S
Zr1765     O1792   2.433       .  S
Zr1765     O1780   2.432       .  S
Zr1765     O1772   2.401       .  S
Zr1765     O1773   2.380       .  S
Zr1765     O1774   2.383       .  S
Zr1766     O1785   2.434       .  S
Zr1766     O1778   2.434       .  S
Zr1766     O1779   2.422       .  S
Zr1766     O1772   2.398       .  S
Zr1766     O1773   2.385       .  S
Zr1767     O1769   2.435       .  S
Zr1767     O1791   2.438       .  S
Zr1767     O1793   2.431       .  S
Zr1767     O1771   2.385       .  S
Zr1768     O1794   2.435       .  S
Zr1768     O1795   2.436       .  S
Zr1768     O1770   2.436       .  S
Zr1768     O1771   2.394       .  S
O1769      H1806   0.990       .  S
O1770      H1801   0.990       .  S
O1770      H1815   0.990       .  S
O1772      H1798   0.967       .  S
O1773     Zr1783   2.378       .  S
O1774     Zr1783   2.380       .  S
O1774      H1799   0.967       .  S
C1775      C1978   1.486       .  S
C1776      C1949   1.477       .  S
C1777      C2029   1.495       .  S
O1778      H1814   0.990       .  S
O1779      C1781   1.282       .  A
O1780      C1781   1.284       .  A
C1781      C1962   1.469       .  S
O1782      H1811   0.991       .  S
Zr1783     O1786   2.436       .  S
Zr1783     O1788   2.424       .  S
O1784      C1789   1.281       .  A
O1785      H1802   0.990       .  S
O1785      H1817   0.990       .  S
O1786      H1803   0.990       .  S
O1787      H1816   0.990       .  S
O1788      C1789   1.283       .  A
C1789      C1930   1.474       .  S
O1790      H1809   0.990       .  S
O1790      H1813   0.990       .  S
O1791      H1805   0.990       .  S
O1791      H1812   0.990       .  S
O1793      C1796   1.284   1_556  A
O1794      H1804   0.990       .  S
C1796      C2077   1.467       .  S
C1819      N1820   1.357       .  A
C1819      N1824   1.357       .  A
C1819      C1933   1.492       .  S
N1820      C1821   1.356       .  A
C1821      N1822   1.357       .  A
C1821      C1946   1.485       .  S
N1822      C1823   1.357       .  A
C1823      N1824   1.357       .  A
C1823      C1917   1.470       .  S
C1825      N1826   1.355       .  A
C1825      N1830   1.365       .  A
C1825      C1981   1.497       .  S
N1826      C1827   1.352       .  A
C1827      N1828   1.352       .  A
C1827      C1965   1.478       .  S
N1828      C1829   1.356       .  A
C1829      N1830   1.362       .  A
C1829      C1898   1.481       .  S
Zr1831     O1832   2.436       .  S
Zr1831     O1833   2.431       .  S
Zr1831     O1834   2.437       .  S
Zr1831     O1839   2.379       .  S
Zr1831     O1840   2.379       .  S
Zr1831     O1841   2.404       .  S
O1832      H1888   0.990       .  S
O1832      H1896   0.989       .  S
O1833      C1853   1.282       .  A
O1834      C1855   1.285       .  A
O1835     Zr1845   2.425       .  S
O1835      C1854   1.283       .  A
O1836     Zr1844   2.420       .  S
O1836      C1855   1.283       .  A
O1837      C1854   1.281       .  A
O1838     Zr2542   2.396       .  S
O1838      C1853   1.279   1_565  A
O1839     Zr1844   2.390       .  S
O1839     Zr2542   2.378   1_545  S
O1840     Zr2542   2.372   1_545  S
O1840      H1875   0.966       .  S
O1841     Zr1844   2.393       .  S
O1841      H1878   0.967       .  S
O1842     Zr1845   2.387       .  S
O1842     Zr1861   2.397       .  S
Zr1843     O2564   2.439   1_545  S
Zr1843     O1858   2.435       .  S
Zr1843     O1850   2.396       .  S
Zr1843     O1851   2.377       .  S
Zr1844     O1863   2.435       .  S
Zr1844     O1856   2.433       .  S
Zr1844     O1857   2.425       .  S
Zr1844     O1850   2.399       .  S
Zr1844     O1851   2.387       .  S
Zr1845     O1847   2.435       .  S
Zr1845     O2565   2.439   1_545  S
Zr1845     O1871   2.416   1_545  S
Zr1845     O1849   2.387   1_545  S
Zr1845     O1852   2.386       .  S
Zr1846     O1872   2.436       .  S
Zr1846     O1873   2.435       .  S
Zr1846     O1848   2.436       .  S
Zr1846     O2534   2.415       .  S
Zr1846     O2535   2.374       .  S
Zr1846     O2536   2.369       .  S
Zr1846     O2546   2.389       .  S
O1847      H1884   0.990       .  S
O1848      H1879   0.990       .  S
O1848      H2589   0.990       .  S
O1850     Zr2542   2.381   1_545  S
O1850      H1876   0.966   1_545  S
O1852     Zr1861   2.374       .  S
O1852      H1877   0.966       .  S
C1853      C1997   1.488       .  S
C1854      C2045   1.477       .  S
C1855      C1914   1.484       .  S
O1856      H1892   0.990       .  S
O1857      C1859   1.282       .  A
O1858      C1859   1.286       .  A
C1859      C2013   1.483       .  S
O1860     Zr1861   2.435       .  S
O1860      H1889   0.990       .  S
Zr1861     O1865   2.437       .  S
Zr1861     O1866   2.430       .  S
O1862      C1867   1.283       .  A
O1863      H1880   0.990       .  S
O1863      H1895   0.990       .  S
O1864      H1881   0.990       .  S
O1865      H1885   0.990       .  S
O1865      H1894   0.990       .  S
O1866      C1867   1.284       .  A
C1867      C2058   1.481       .  S
O1868     Zr2539   2.440       .  S
O1868      H1891   0.990       .  S
O1869     Zr2541   2.438       .  S
O1869      H1883   0.990       .  S
O1869      H1890   0.990       .  S
O1870      C1874   1.283       .  A
O1871      C2570   1.282       .  A
O1872      H1882   0.990       .  S
O1873      H1886   0.990       .  S
C1874      C1901   1.469       .  S
C1874      O2567   1.283       .  A
H1893      O2544   0.990       .  S
C1897      C1898   1.405       .  A
C1897      C1902   1.398       .  A
C1897      H1904   1.083       .  S
C1898      C1899   1.415       .  A
C1899      C1900   1.406       .  A
C1899      C1906   1.506       .  S
C1900      C1901   1.402       .  A
C1900      H1905   1.084       .  S
C1901      C1902   1.410       .  A
C1902      C1903   1.509       .  S
C1903      H1907   1.111       .  S
C1903      H1908   1.111       .  S
C1903      H1909   1.109       .  S
C1906      H1910   1.110       .  S
C1906      H1911   1.110       .  S
C1906      H1912   1.111       .  S
C1913      C1914   1.406       .  A
C1913      C1918   1.401       .  A
C1913      H1920   1.084       .  S
C1914      C1915   1.418       .  A
C1915      C1916   1.403       .  A
C1915      C1922   1.505       .  S
C1916      C1917   1.400       .  A
C1916      H1921   1.084       .  S
C1917      C1918   1.409       .  A
C1918      C1919   1.506       .  S
C1919      H1923   1.111       .  S
C1919      H1924   1.106       .  S
C1919      H1925   1.110       .  S
C1922      H1926   1.110       .  S
C1922      H1927   1.108       .  S
C1922      H1928   1.111       .  S
C1929      C1930   1.401       .  A
C1929      C1934   1.404       .  A
C1929      H1936   1.084       .  S
C1930      C1931   1.412       .  A
C1931      C1932   1.399       .  A
C1931      C1938   1.510       .  S
C1932      C1933   1.410       .  A
C1932      H1937   1.083       .  S
C1933      C1934   1.422       .  A
C1934      C1935   1.508       .  S
C1935      H1939   1.111       .  S
C1935      H1940   1.110       .  S
C1935      H1941   1.110       .  S
C1938      H1942   1.110       .  S
C1938      H1943   1.109       .  S
C1938      H1944   1.111       .  S
C1945      C1946   1.407       .  A
C1945      C1950   1.400       .  A
C1945      H1952   1.084       .  S
C1946      C1947   1.417       .  A
C1947      C1948   1.403       .  A
C1947      C1954   1.506       .  S
C1948      C1949   1.404       .  A
C1948      H1953   1.084       .  S
C1949      C1950   1.413       .  A
C1950      C1951   1.510       .  S
C1951      H1955   1.111       .  S
C1951      H1956   1.111       .  S
C1951      H1957   1.109       .  S
C1954      H1958   1.110       .  S
C1954      H1959   1.109       .  S
C1954      H1960   1.111       .  S
C1961      C1962   1.399       .  A
C1961      C1966   1.399       .  A
C1961      H1968   1.084       .  S
C1962      C1963   1.411       .  A
C1963      C1964   1.405       .  A
C1963      C1970   1.506       .  S
C1964      C1965   1.406       .  A
C1964      H1969   1.084       .  S
C1965      C1966   1.417       .  A
C1966      C1967   1.508       .  S
C1967      H1971   1.111       .  S
C1967      H1972   1.110       .  S
C1967      H1973   1.109       .  S
C1970      H1974   1.110       .  S
C1970      H1975   1.110       .  S
C1970      H1976   1.111       .  S
C1977      C1978   1.401       .  A
C1977      C1982   1.400       .  A
C1977      H1984   1.084       .  S
C1978      C1979   1.416       .  A
C1979      C1980   1.405       .  A
C1979      C1986   1.508       .  S
C1980      C1981   1.408       .  A
C1980      H1985   1.083       .  S
C1981      C1982   1.426       .  A
C1982      C1983   1.511       .  S
C1983      H1987   1.111       .  S
C1983      H1988   1.110       .  S
C1983      H1989   1.110       .  S
C1986      H1990   1.108       .  S
C1986      H1991   1.111       .  S
C1986      H1992   1.111       .  S
C1993      C1994   1.400   1_545  A
C1993      C1998   1.404       .  A
C1993      H2000   1.084       .  S
C1994      C2447   1.465       .  S
C1994      C2691   1.408       .  A
C1995      C2690   1.410       .  A
C1995      C2692   1.397       .  A
C1995      C2002   1.510       .  S
C1996      C2691   1.394       .  A
C1996      C1997   1.410   1_565  A
C1996      H2001   1.083       .  S
C1997      C1998   1.421       .  A
C1998      C1999   1.508       .  S
C1999      H2003   1.111       .  S
C1999      H2004   1.110       .  S
C1999      H2005   1.108       .  S
C2002      H2006   1.110       .  S
C2002      H2007   1.111       .  S
C2002      H2008   1.111       .  S
C2009      C2706   1.404       .  A
C2009      C2014   1.406       .  A
C2009      H2712   1.084       .  S
C2010      C2705   1.404       .  A
C2010      C2707   1.419       .  A
C2011      C2706   1.421       .  A
C2011      C2012   1.399   1_565  A
C2011      C2714   1.511       .  S
C2012      C2013   1.400       .  A
C2012      H2017   1.081       .  S
C2013      C2014   1.417   1_545  A
C2014      C2015   1.507       .  S
C2015      H2019   1.111       .  S
C2015      H2020   1.109   1_565  S
C2015      H2717   1.111       .  S
H2016      C2705   1.084       .  S
C2018      C2707   1.510       .  S
C2018      H2718   1.109       .  S
C2018      H2023   1.110       .  S
C2018      H2720   1.111       .  S
H2021      C2711   1.111       .  S
H2022      C2714   1.109   1_545  S
H2024      C2714   1.111       .  S
C2025      C2026   1.403       .  A
C2025      C2030   1.408       .  A
C2025      H2032   1.084       .  S
C2026      C2027   1.415       .  A
C2027      C2028   1.398       .  A
C2027      C2034   1.510   1_556  S
C2028      C2029   1.407       .  A
C2028      H2033   1.084   1_556  S
C2029      C2030   1.422       .  A
C2030      C2031   1.506       .  S
C2031      H2035   1.111       .  S
C2031      H2036   1.109       .  S
C2031      H2037   1.110       .  S
C2034      H2038   1.109       .  S
C2034      H2039   1.110       .  S
C2034      H2040   1.111       .  S
C2041      C2042   1.404       .  A
C2041      C2046   1.400       .  A
C2041      H2048   1.084       .  S
C2042      C2043   1.414       .  A
C2043      C2044   1.403       .  A
C2043      C2050   1.504       .  S
C2044      C2045   1.404       .  A
C2044      H2049   1.084       .  S
C2045      C2046   1.415       .  A
C2046      C2047   1.509   1_655  S
C2047      H2051   1.111       .  S
C2047      H2052   1.111       .  S
C2050      H2054   1.110       .  S
C2050      H2055   1.108       .  S
C2050      H2056   1.111       .  S
C2057      C2058   1.401       .  A
C2057      C2062   1.404       .  A
C2057      H2064   1.084       .  S
C2058      C2059   1.413       .  A
C2059      C2060   1.405       .  A
C2059      C2066   1.507       .  S
C2060      C2061   1.410       .  A
C2060      H2065   1.083       .  S
C2061      C2062   1.423       .  A
C2062      C2063   1.510       .  S
C2063      H2067   1.111       .  S
C2063      H2068   1.109       .  S
C2063      H2069   1.111       .  S
C2066      H2070   1.111   1_655  S
C2066      H2071   1.110       .  S
C2066      H2072   1.111       .  S
C2073      C2078   1.400       .  A
C2073      H2080   1.085       .  S
C2074      C2075   1.412       .  A
C2075      C2076   1.404       .  A
C2075      C2082   1.505       .  S
C2076      H2081   1.084       .  S
C2077      C2078   1.410   1_554  A
C2078      C2079   1.507       .  S
C2079      H2083   1.111       .  S
C2079      H2085   1.110       .  S
C2082      H2086   1.105       .  S
C2082      H2088   1.111       .  S
C2089      N2438   1.360   1_554  A
C2089      N2094   1.363       .  A
C2089      C2390   1.487       .  S
N2090      C2437   1.358       .  A
N2090      C2091   1.355       .  A
C2091      N2092   1.353       .  A
C2091      C2409   1.493       .  S
N2092      C2441   1.357       .  A
C2093      N2440   1.355   1_554  A
C2093      N2094   1.360       .  A
C2093      C2422   1.476       .  S
C2095      N2096   1.365       .  A
C2095      C2358   1.478       .  S
N2096      C2097   1.363       .  A
C2097      N2446   1.353       .  A
C2097      C2374   1.482       .  S
N2098      C2445   1.354       .  A
N2098      C2099   1.351   1_556  A
Zr2101     O2102   2.435       .  S
Zr2101     O2103   2.416       .  S
Zr2101     O2104   2.441       .  S
Zr2101     O2107   2.432       .  S
Zr2101     O2109   2.379       .  S
Zr2101     O2110   2.382       .  S
Zr2101     O2111   2.405       .  S
Zr2101     O2112   2.398       .  S
O2102      H2158   0.990       .  S
O2102      H2166   0.990       .  S
O2103      C2123   1.282       .  A
O2104      C2125   1.285       .  A
O2105     Zr2115   2.415       .  S
O2105      C2124   1.282       .  A
O2106     Zr2114   2.427   1_556  S
O2106      C2473   1.286       .  A
O2107      C2124   1.284       .  A
O2108     Zr2116   2.414       .  S
O2108      C2123   1.279       .  A
O2109     Zr2462   2.389       .  S
O2109     Zr2116   2.374       .  S
O2110     Zr2115   2.385       .  S
O2110     Zr2116   2.373       .  S
O2110      H2145   0.966       .  S
O2111     Zr2462   2.392       .  S
O2111     Zr2479   2.397       .  S
O2111      H2148   0.966       .  S
O2112     Zr2115   2.390       .  S
O2112     Zr2479   2.392       .  S
Zr2113     O2138   2.444       .  S
Zr2113     O2132   2.416       .  S
Zr2113     O2140   2.427       .  S
Zr2113     O2128   2.413       .  S
Zr2113     O2467   2.396   1_554  S
Zr2113     O2120   2.399       .  S
Zr2113     O2121   2.381       .  S
Zr2113     O2122   2.378   1_554  S
Zr2114     O2133   2.435       .  S
Zr2114     O2126   2.435       .  S
Zr2114     O2127   2.426       .  S
Zr2114     O2457   2.385   1_554  S
Zr2114     O2459   2.390   1_554  S
Zr2114     O2120   2.394       .  S
Zr2114     O2121   2.383       .  S
Zr2115     O2117   2.435       .  S
Zr2115     O2139   2.437       .  S
Zr2115     O2141   2.423       .  S
Zr2115     O2119   2.388       .  S
Zr2115     O2470   2.380       .  S
Zr2116     O2142   2.434       .  S
Zr2116     O2143   2.436       .  S
Zr2116     O2118   2.438       .  S
Zr2116     O2119   2.398       .  S
Zr2116     O2468   2.386       .  S
O2117      H2154   0.990       .  S
O2118      H2149   0.990       .  S
O2118      H2163   0.990       .  S
O2119     Zr2461   2.397       .  S
O2120     Zr2464   2.386   1_554  S
O2120      H2146   0.967       .  S
O2121     Zr2131   2.376       .  S
O2122     Zr2463   2.383       .  S
O2122     Zr2131   2.377   1_556  S
O2122      H2147   0.967   1_556  S
C2123      C2326   1.487       .  S
C2124      C2297   1.480       .  S
C2125      C2377   1.495       .  S
C2125      O2454   1.285       .  A
O2126      H2162   0.990       .  S
O2127      C2129   1.283       .  A
O2128      C2129   1.282       .  A
C2129      C2310   1.468       .  S
O2130     Zr2479   2.437       .  S
O2130      H2159   0.990       .  S
Zr2131     O2478   2.439   1_554  S
Zr2131     O2134   2.436       .  S
Zr2131     O2483   2.439   1_554  S
Zr2131     O2136   2.424       .  S
Zr2131     O2459   2.395   1_554  S
Zr2131     O2460   2.390   1_554  S
O2132      C2137   1.281       .  A
O2133      H2150   0.990       .  S
O2133      H2165   0.990       .  S
O2134      H2151   0.990       .  S
O2135     Zr2479   2.438       .  S
O2135      H2503   0.990       .  S
O2135      H2164   0.990       .  S
O2136      C2137   1.283       .  A
C2137      C2278   1.470       .  S
O2138      H2157   0.990       .  S
O2138      H2161   0.990       .  S
O2139      H2153   0.990       .  S
O2139      H2160   0.990       .  S
O2140      C2492   1.282       .  A
O2141      C2144   1.283       .  A
O2142      H2152   0.990       .  S
O2143      H2504   0.990       .  S
C2144      C2425   1.469       .  S
C2144      O2488   1.282       .  A
H2155      O2483   0.990       .  S
H2156      O2491   0.990   1_554  S
C2167      N2168   1.357       .  A
C2167      N2172   1.356       .  A
C2167      C2281   1.489       .  S
N2168      C2169   1.356       .  A
C2169      N2170   1.358       .  A
C2169      C2294   1.485       .  S
N2170      C2171   1.358       .  A
C2171      N2172   1.356       .  A
C2171      C2265   1.469       .  S
C2173      N2174   1.355       .  A
C2173      N2178   1.359       .  A
C2173      C2329   1.488       .  S
N2174      C2175   1.353       .  A
C2175      N2176   1.354       .  A
C2175      C2313   1.468       .  S
N2176      C2177   1.357       .  A
C2177      N2178   1.355       .  A
C2177      C2246   1.477       .  S
Zr2179     O2180   2.434       .  S
Zr2179     O2181   2.428       .  S
Zr2179     O2182   2.445       .  S
Zr2179     O2187   2.375       .  S
Zr2179     O2188   2.382       .  S
Zr2179     O2189   2.399       .  S
O2180      H2236   0.990       .  S
O2180      H2244   0.989       .  S
O2181      C2201   1.282       .  A
O2182      C2203   1.286       .  A
O2183     Zr2193   2.423       .  S
O2183      C2202   1.283       .  A
O2184     Zr2192   2.411       .  S
O2184      C2203   1.281       .  A
O2185      C2202   1.282       .  A
O2186      C2201   1.281       .  A
O2187     Zr2192   2.386       .  S
O2188      H2223   0.966       .  S
O2189     Zr2192   2.395       .  S
O2189      H2226   0.967       .  S
O2190     Zr2193   2.390       .  S
O2190     Zr2209   2.394       .  S
Zr2191     O2206   2.425       .  S
Zr2191     O2198   2.399       .  S
Zr2191     O2199   2.375       .  S
Zr2192     O2211   2.436       .  S
Zr2192     O2204   2.435       .  S
Zr2192     O2205   2.419       .  S
Zr2192     O2198   2.394       .  S
Zr2192     O2199   2.385       .  S
Zr2193     O2195   2.435       .  S
Zr2193     O2219   2.411       .  S
Zr2193     O2197   2.386       .  S
Zr2193     O2200   2.388       .  S
Zr2194     O2220   2.435       .  S
Zr2194     O2221   2.435       .  S
Zr2194     O2196   2.437       .  S
O2195      H2232   0.990       .  S
O2196      H2227   0.990       .  S
O2198      H2224   0.966       .  S
O2200     Zr2209   2.372       .  S
O2200      H2225   0.966       .  S
C2201      C2345   1.488       .  S
C2202      C2393   1.479       .  S
C2203      C2262   1.481       .  S
O2204      H2240   0.990       .  S
O2205      C2207   1.282       .  A
O2206      C2207   1.285       .  A
C2207      C2361   1.480       .  S
O2208     Zr2209   2.438       .  S
O2208      H2237   0.991       .  S
Zr2209     O2213   2.439       .  S
Zr2209     O2214   2.423       .  S
O2210      C2215   1.283       .  A
O2211      H2228   0.990       .  S
O2211      H2243   0.990       .  S
O2212      H2229   0.990       .  S
O2213      H2233   0.990       .  S
O2213      H2242   0.990       .  S
O2214      C2215   1.282       .  A
C2215      C2406   1.476       .  S
O2216      H2239   0.990       .  S
O2217      H2231   0.990       .  S
O2217      H2238   0.990       .  S
O2218      C2222   1.283       .  A
O2220      H2230   0.990       .  S
O2221      H2234   0.990       .  S
C2222      C2249   1.464       .  S
C2245      C2246   1.404       .  A
C2245      C2250   1.397       .  A
C2245      H2252   1.082       .  S
C2246      C2247   1.418       .  A
C2247      C2248   1.403       .  A
C2247      C2254   1.507       .  S
C2248      C2249   1.400       .  A
C2248      H2253   1.084       .  S
C2249      C2250   1.410       .  A
C2250      C2251   1.509       .  S
C2251      H2255   1.111       .  S
C2251      H2256   1.111       .  S
C2251      H2257   1.108       .  S
C2254      H2258   1.109       .  S
C2254      H2259   1.110       .  S
C2254      H2260   1.111       .  S
C2261      C2262   1.407       .  A
C2261      C2266   1.402       .  A
C2261      H2268   1.084       .  S
C2262      C2263   1.416       .  A
C2263      C2264   1.402       .  A
C2263      C2270   1.504       .  S
C2264      C2265   1.400       .  A
C2264      H2269   1.084       .  S
C2265      C2266   1.408       .  A
C2266      C2267   1.506       .  S
C2267      H2271   1.111       .  S
C2267      H2272   1.108       .  S
C2267      H2273   1.110       .  S
C2270      H2274   1.110       .  S
C2270      H2275   1.107       .  S
C2270      H2276   1.111       .  S
C2277      C2278   1.400       .  A
C2277      C2282   1.404       .  A
C2277      H2284   1.085       .  S
C2278      C2279   1.410       .  A
C2279      C2280   1.398       .  A
C2279      C2286   1.510       .  S
C2280      C2281   1.409       .  A
C2280      H2285   1.083       .  S
C2281      C2282   1.421       .  A
C2282      C2283   1.509       .  S
C2283      H2287   1.111       .  S
C2283      H2288   1.109       .  S
C2283      H2289   1.110       .  S
C2286      H2290   1.110       .  S
C2286      H2291   1.109       .  S
C2286      H2292   1.111       .  S
C2293      C2294   1.408       .  A
C2293      C2298   1.403       .  A
C2293      H2300   1.084       .  S
C2294      C2295   1.415       .  A
C2295      C2296   1.402       .  A
C2295      C2302   1.507       .  S
C2296      C2297   1.405       .  A
C2296      H2301   1.084       .  S
C2297      C2298   1.414       .  A
C2298      C2299   1.509       .  S
C2299      H2303   1.111       .  S
C2299      H2304   1.110       .  S
C2299      H2305   1.109       .  S
C2302      H2306   1.110       .  S
C2302      H2307   1.109       .  S
C2302      H2308   1.111       .  S
C2309      C2310   1.402       .  A
C2309      C2314   1.396       .  A
C2309      H2316   1.084       .  S
C2310      C2311   1.412       .  A
C2311      C2312   1.403       .  A
C2311      C2318   1.507       .  S
C2312      C2313   1.403       .  A
C2312      H2317   1.084       .  S
C2313      C2314   1.412       .  A
C2314      C2315   1.508       .  S
C2315      H2319   1.111       .  S
C2315      H2320   1.110       .  S
C2315      H2321   1.108       .  S
C2318      H2322   1.110       .  S
C2318      H2323   1.109       .  S
C2318      H2324   1.111       .  S
C2325      C2326   1.406       .  A
C2325      C2330   1.400       .  A
C2325      H2332   1.084       .  S
C2326      C2327   1.419       .  A
C2327      C2328   1.399       .  A
C2327      C2334   1.510       .  S
C2328      C2329   1.406       .  A
C2328      H2333   1.083       .  S
C2329      C2330   1.420       .  A
C2330      C2331   1.510       .  S
C2331      H2335   1.111       .  S
C2331      H2336   1.109       .  S
C2331      H2337   1.110       .  S
C2334      H2338   1.109       .  S
C2334      H2339   1.110       .  S
C2334      H2340   1.111       .  S
C2341      C2342   1.401       .  A
C2341      C2346   1.406       .  A
C2341      H2348   1.084       .  S
C2343      C2350   1.510       .  S
C2344      C2345   1.409       .  A
C2344      H2349   1.083       .  S
C2345      C2346   1.421       .  A
C2346      C2347   1.508       .  S
C2347      H2351   1.111       .  S
C2347      H2352   1.111       .  S
C2347      H2353   1.109       .  S
C2350      H2354   1.109       .  S
C2350      H2355   1.111       .  S
C2350      H2356   1.111       .  S
C2357      C2362   1.402       .  A
C2359      C2360   1.399       .  A
C2360      C2361   1.403       .  A
C2360      H2365   1.083       .  S
C2361      C2362   1.419       .  A
C2362      C2363   1.508       .  S
C2363      H2367   1.111       .  S
C2363      H2368   1.109       .  S
C2366      H2371   1.110       .  S
C2373      C2374   1.403       .  A
C2373      C2378   1.409       .  A
C2373      H2380   1.084       .  S
C2374      C2375   1.415       .  A
C2375      C2376   1.399       .  A
C2375      C2382   1.511       .  S
C2376      C2377   1.407       .  A
C2376      H2381   1.084       .  S
C2377      C2378   1.421       .  A
C2378      C2379   1.505       .  S
C2379      H2383   1.111       .  S
C2379      H2384   1.109       .  S
C2379      H2385   1.110       .  S
C2382      H2386   1.109       .  S
C2382      H2387   1.110       .  S
C2382      H2388   1.111       .  S
C2389      C2390   1.407       .  A
C2389      C2394   1.400       .  A
C2389      H2396   1.084       .  S
C2390      C2391   1.416       .  A
C2391      C2392   1.404       .  A
C2391      C2398   1.504       .  S
C2392      C2393   1.403       .  A
C2392      H2397   1.084       .  S
C2393      C2394   1.414       .  A
C2394      C2395   1.510       .  S
C2395      H2399   1.111   1_655  S
C2395      H2400   1.111       .  S
C2398      H2402   1.110       .  S
C2398      H2403   1.108       .  S
C2398      H2404   1.111       .  S
C2405      C2406   1.401       .  A
C2405      C2410   1.404       .  A
C2405      H2412   1.085       .  S
C2406      C2407   1.410       .  A
C2407      C2408   1.402       .  A
C2407      C2414   1.507       .  S
C2408      C2409   1.410       .  A
C2408      H2413   1.083       .  S
C2409      C2410   1.422       .  A
C2410      C2411   1.509       .  S
C2411      H2415   1.111       .  S
C2411      H2416   1.109       .  S
C2411      H2417   1.110       .  S
C2414      H2418   1.111   1_655  S
C2414      H2419   1.109       .  S
C2414      H2420   1.111       .  S
C2421      C2770   1.403       .  A
C2421      C2426   1.397       .  A
C2421      H2428   1.084       .  S
C2422      C2769   1.403   1_554  A
C2422      C2423   1.414       .  A
C2423      C2424   1.407       .  A
C2423      C2430   1.504       .  S
C2424      C2773   1.403       .  A
C2424      H2429   1.084       .  S
C2425      C2772   1.403       .  A
C2425      C2426   1.410       .  A
C2426      C2427   1.508       .  S
C2427      H2431   1.111       .  S
C2427      H2780   1.111       .  S
C2427      H2433   1.108       .  S
C2430      H2434   1.105       .  S
C2430      H2783   1.110       .  S
C2430      H2436   1.111       .  S
H2432      C2775   1.110       .  S
H2435      C2778   1.110       .  S
C2437      N2442   1.363       .  A
C2437      C2738   1.484       .  S
N2438      C2439   1.356       .  A
C2439      N2440   1.351       .  A
C2439      C2757   1.492       .  S
C2441      N2442   1.362       .  A
C2441      C2770   1.478       .  S
C2443      N2444   1.365       .  A
C2443      C2706   1.485       .  S
N2444      C2445   1.363       .  A
C2445      C2722   1.479       .  S
N2446      C2447   1.350       .  A
Zr2449     O2450   2.436       .  S
Zr2449     O2451   2.416       .  S
Zr2449     O2452   2.437       .  S
Zr2449     O2455   2.427       .  S
Zr2449     O2457   2.378       .  S
Zr2449     O2458   2.383       .  S
Zr2449     O2459   2.402       .  S
Zr2449     O2460   2.398       .  S
O2450      H2506   0.990       .  S
O2450      H2514   0.990       .  S
O2451      C2471   1.283       .  A
O2452      C2473   1.284       .  A
O2453     Zr2463   2.420       .  S
O2453      C2472   1.284       .  A
O2454     Zr2462   2.421       .  S
O2455      C2472   1.284       .  A
O2456     Zr2464   2.415       .  S
O2456      C2471   1.280       .  A
O2457     Zr2464   2.372       .  S
O2458     Zr2463   2.388       .  S
O2458     Zr2464   2.372       .  S
O2458      H2493   0.966       .  S
O2459      H2496   0.966       .  S
O2460     Zr2463   2.390       .  S
Zr2461     O2486   2.444       .  S
Zr2461     O2480   2.414       .  S
Zr2461     O2488   2.428       .  S
Zr2461     O2476   2.413       .  S
Zr2461     O2468   2.400       .  S
Zr2461     O2469   2.379       .  S
Zr2461     O2470   2.377       .  S
Zr2462     O2481   2.435       .  S
Zr2462     O2474   2.435       .  S
Zr2462     O2475   2.423       .  S
Zr2462     O2468   2.395       .  S
Zr2462     O2469   2.382       .  S
Zr2463     O2465   2.435       .  S
Zr2463     O2487   2.436       .  S
Zr2463     O2489   2.427       .  S
Zr2463     O2467   2.387       .  S
Zr2464     O2490   2.435       .  S
Zr2464     O2491   2.435       .  S
Zr2464     O2466   2.437       .  S
Zr2464     O2467   2.395       .  S
O2465      H2502   0.990       .  S
O2466      H2497   0.990       .  S
O2466      H2511   0.990       .  S
O2468      H2494   0.966       .  S
O2469     Zr2479   2.374       .  S
O2470     Zr2479   2.375       .  S
O2470      H2495   0.966       .  S
C2471      C2674   1.485       .  S
C2472      C2645   1.485       .  S
C2473      C2725   1.493       .  S
O2474      H2510   0.990       .  S
O2475      C2477   1.282       .  A
O2476      C2477   1.282       .  A
C2477      C2658   1.466       .  S
O2478      H2507   0.990       .  S
Zr2479     O2482   2.437       .  S
Zr2479     O2484   2.425       .  S
O2480      C2485   1.281       .  A
O2481      H2498   0.990       .  S
O2481      H2513   0.990       .  S
O2482      H2499   0.990       .  S
O2483      H2512   0.990       .  S
O2484      C2485   1.283       .  A
C2485      C2626   1.477       .  S
O2486      H2505   0.990       .  S
O2486      H2509   0.990       .  S
O2487      H2501   0.990       .  S
O2487      H2508   0.990       .  S
O2489      C2492   1.284   1_556  A
O2490      H2500   0.990       .  S
C2492      C2773   1.469       .  S
C2515      N2516   1.357       .  A
C2515      N2520   1.356       .  A
C2515      C2629   1.494       .  S
N2516      C2517   1.355       .  A
C2517      N2518   1.358       .  A
C2517      C2642   1.478       .  S
N2518      C2519   1.359       .  A
C2519      N2520   1.357       .  A
C2519      C2613   1.471       .  S
C2521      N2522   1.354       .  A
C2521      N2526   1.363       .  A
C2521      C2677   1.490       .  S
N2522      C2523   1.351       .  A
C2523      N2524   1.352       .  A
C2523      C2661   1.465       .  S
N2524      C2525   1.356       .  A
C2525      N2526   1.358       .  A
C2525      C2594   1.485       .  S
Zr2527     O2528   2.436       .  S
Zr2527     O2529   2.425       .  S
Zr2527     O2530   2.447       .  S
Zr2527     O2535   2.380       .  S
Zr2527     O2536   2.380       .  S
Zr2527     O2537   2.402       .  S
O2528      H2584   0.990       .  S
O2528      H2592   0.990       .  S
O2529      C2549   1.281       .  A
O2530      C2551   1.287       .  A
O2531     Zr2541   2.430       .  S
O2531      C2550   1.285       .  A
O2532     Zr2540   2.418       .  S
O2532      C2551   1.282       .  A
O2533      C2550   1.282       .  A
O2534      C2549   1.282       .  A
O2535     Zr2540   2.390       .  S
O2536      H2571   0.966       .  S
O2537     Zr2540   2.398       .  S
O2537      H2574   0.967       .  S
O2538     Zr2541   2.389       .  S
O2538     Zr2557   2.397       .  S
Zr2539     O2554   2.429       .  S
Zr2539     O2546   2.404       .  S
Zr2539     O2547   2.379       .  S
Zr2540     O2559   2.436       .  S
Zr2540     O2552   2.433       .  S
Zr2540     O2553   2.428       .  S
Zr2540     O2546   2.395       .  S
Zr2540     O2547   2.388       .  S
Zr2541     O2543   2.434       .  S
Zr2541     O2567   2.422       .  S
Zr2541     O2545   2.389       .  S
Zr2541     O2548   2.386       .  S
Zr2542     O2568   2.436       .  S
Zr2542     O2569   2.435       .  S
Zr2542     O2544   2.436       .  S
O2543      H2580   0.990       .  S
O2544      H2575   0.990       .  S
O2546      H2572   0.966       .  S
O2548     Zr2557   2.377       .  S
O2548      H2573   0.966       .  S
C2549      C2693   1.492       .  S
C2550      C2741   1.485       .  S
C2551      C2610   1.483       .  S
O2552      H2588   0.990       .  S
O2553      C2555   1.283       .  A
O2554      C2555   1.284       .  A
C2555      C2709   1.484       .  S
O2556     Zr2557   2.439       .  S
O2556      H2585   0.990       .  S
Zr2557     O2561   2.438       .  S
Zr2557     O2562   2.421       .  S
O2558      C2563   1.283       .  A
O2559      H2576   0.990       .  S
O2559      H2591   0.990       .  S
O2560      H2577   0.990       .  S
O2561      H2581   0.990       .  S
O2561      H2590   0.990       .  S
O2562      C2563   1.282       .  A
C2563      C2754   1.477       .  S
O2564      H2587   0.990       .  S
O2565      H2579   0.990       .  S
O2565      H2586   0.990       .  S
O2566      C2570   1.284       .  A
O2568      H2578   0.990       .  S
O2569      H2582   0.990       .  S
C2570      C2597   1.471       .  S
C2593      C2594   1.405       .  A
C2593      C2598   1.396       .  A
C2593      H2600   1.081       .  S
C2594      C2595   1.419       .  A
C2595      C2596   1.407       .  A
C2595      C2602   1.506       .  S
C2596      C2597   1.402       .  A
C2596      H2601   1.084       .  S
C2597      C2598   1.411       .  A
C2598      C2599   1.509       .  S
C2599      H2603   1.111       .  S
C2599      H2604   1.111       .  S
C2599      H2605   1.108       .  S
C2602      H2606   1.109       .  S
C2602      H2607   1.110       .  S
C2602      H2608   1.111       .  S
C2609      C2610   1.407       .  A
C2609      C2614   1.403       .  A
C2609      H2616   1.084       .  S
C2610      C2611   1.416       .  A
C2611      C2612   1.403       .  A
C2611      C2618   1.505       .  S
C2612      C2613   1.401       .  A
C2612      H2617   1.084       .  S
C2613      C2614   1.408       .  A
C2614      C2615   1.506       .  S
C2615      H2619   1.111       .  S
C2615      H2620   1.108       .  S
C2615      H2621   1.110       .  S
C2618      H2622   1.111       .  S
C2618      H2623   1.108       .  S
C2618      H2624   1.111       .  S
C2625      C2626   1.402       .  A
C2625      C2630   1.404       .  A
C2625      H2632   1.084       .  S
C2626      C2627   1.413       .  A
C2627      C2628   1.398       .  A
C2627      C2634   1.511       .  S
C2628      C2629   1.410       .  A
C2628      H2633   1.083       .  S
C2629      C2630   1.423       .  A
C2630      C2631   1.509       .  S
C2631      H2635   1.111       .  S
C2631      H2636   1.110       .  S
C2631      H2637   1.110       .  S
C2634      H2638   1.111       .  S
C2634      H2639   1.109       .  S
C2634      H2640   1.111       .  S
C2641      C2642   1.404       .  A
C2641      C2646   1.402       .  A
C2641      H2648   1.084       .  S
C2642      C2643   1.411       .  A
C2643      C2644   1.403       .  A
C2643      C2650   1.506       .  S
C2644      C2645   1.409       .  A
C2644      H2649   1.084       .  S
C2645      C2646   1.418       .  A
C2646      C2647   1.510       .  S
C2647      H2651   1.111       .  S
C2647      H2652   1.110       .  S
C2647      H2653   1.109       .  S
C2650      H2654   1.111       .  S
C2650      H2655   1.108       .  S
C2650      H2656   1.111       .  S
C2657      C2658   1.401       .  A
C2657      C2662   1.395       .  A
C2657      H2664   1.084       .  S
C2658      C2659   1.412       .  A
C2659      C2660   1.402       .  A
C2659      C2666   1.507       .  S
C2660      C2661   1.403       .  A
C2660      H2665   1.084       .  S
C2661      C2662   1.412       .  A
C2662      C2663   1.507       .  S
C2663      H2667   1.111       .  S
C2663      H2668   1.110       .  S
C2663      H2669   1.107       .  S
C2666      H2670   1.110       .  S
C2666      H2671   1.109       .  S
C2666      H2672   1.111       .  S
C2673      C2674   1.404       .  A
C2673      C2678   1.401       .  A
C2673      H2680   1.084       .  S
C2674      C2675   1.418       .  A
C2675      C2676   1.399       .  A
C2675      C2682   1.509       .  S
C2676      C2677   1.405       .  A
C2676      H2681   1.082       .  S
C2677      C2678   1.423       .  A
C2678      C2679   1.511       .  S
C2679      H2683   1.111       .  S
C2679      H2684   1.110       .  S
C2679      H2685   1.110       .  S
C2682      H2686   1.109       .  S
C2682      H2687   1.110       .  S
C2682      H2688   1.111       .  S
C2689      C2690   1.400       .  A
C2689      C2694   1.405       .  A
C2689      H2696   1.084       .  S
C2691      C2698   1.511       .  S
C2692      C2693   1.409       .  A
C2692      H2697   1.083       .  S
C2693      C2694   1.423       .  A
C2694      C2695   1.508       .  S
C2695      H2699   1.111       .  S
C2695      H2700   1.110       .  S
C2695      H2701   1.108       .  S
C2698      H2702   1.109       .  S
C2698      H2703   1.111       .  S
C2698      H2704   1.111       .  S
C2705      C2710   1.406       .  A
C2707      C2708   1.399       .  A
C2708      C2709   1.402       .  A
C2708      H2713   1.082       .  S
C2709      C2710   1.417       .  A
C2710      C2711   1.507       .  S
C2711      H2715   1.111       .  S
C2711      H2716   1.109       .  S
C2714      H2719   1.110       .  S
C2721      C2722   1.402       .  A
C2721      C2726   1.407       .  A
C2721      H2728   1.084       .  S
C2722      C2723   1.414       .  A
C2723      C2724   1.401       .  A
C2723      C2730   1.510   1_556  S
C2724      C2725   1.407       .  A
C2724      H2729   1.084   1_556  S
C2725      C2726   1.421       .  A
C2726      C2727   1.505       .  S
C2727      H2731   1.111       .  S
C2727      H2732   1.109       .  S
C2727      H2733   1.109       .  S
C2730      H2734   1.108       .  S
C2730      H2735   1.110   1_554  S
C2730      H2736   1.111       .  S
C2737      C2738   1.405       .  A
C2737      C2742   1.401       .  A
C2737      H2744   1.084       .  S
C2738      C2739   1.413       .  A
C2739      C2740   1.405       .  A
C2739      C2746   1.503       .  S
C2740      C2741   1.406       .  A
C2740      H2745   1.084       .  S
C2741      C2742   1.417       .  A
C2742      C2743   1.509       .  S
C2743      H2747   1.111   1_655  S
C2743      H2748   1.110   1_655  S
C2746      H2750   1.110       .  S
C2746      H2751   1.107       .  S
C2746      H2752   1.111       .  S
C2753      C2754   1.400       .  A
C2753      C2758   1.402       .  A
C2753      H2760   1.085       .  S
C2754      C2755   1.411       .  A
C2755      C2756   1.403       .  A
C2755      C2762   1.507       .  S
C2756      C2757   1.409       .  A
C2756      H2761   1.083       .  S
C2757      C2758   1.423       .  A
C2758      C2759   1.510       .  S
C2759      H2763   1.111       .  S
C2759      H2764   1.110       .  S
C2759      H2765   1.110       .  S
C2762      H2766   1.111   1_655  S
C2762      H2767   1.109       .  S
C2762      H2768   1.111       .  S
C2769      C2774   1.397       .  A
C2769      H2776   1.085       .  S
C2770      C2771   1.415       .  A
C2771      C2772   1.408       .  A
C2771      C2778   1.503       .  S
C2772      H2777   1.084       .  S
C2773      C2774   1.409   1_554  A
C2774      C2775   1.508       .  S
C2775      H2779   1.111       .  S
C2775      H2781   1.109       .  S
C2778      H2782   1.105       .  S
C2778      H2784   1.111       .  S
