geometry optimzed in LAMMPS
_audit_creation_date              2020-12-01 
_audit_creation_method            'lammps2cif' 
_symmetry_space_group_name_H-M    'P1' 
_symmetry_Int_Tables_number       1 
_symmetry_cell_setting            triclinic 
loop_ 
_symmetry_equiv_pos_as_xyz 
  x,y,z 
_cell_length_a                    37.20017642 
_cell_length_b                    26.897483172552878 
_cell_length_c                    27.08753584436324 
_cell_angle_alpha                 89.29165996073901 
_cell_angle_beta                  90.07973887168197 
_cell_angle_gamma                 90.04677326486355 
loop_ 
_atom_site_label 
_atom_site_type_symbol 
_atom_site_fract_x 
_atom_site_fract_y 
_atom_site_fract_z 
_atom_site_charge 
O1          O  0.18116884  0.28149376  0.02775978    -0.88500
C2          C  0.08274055  0.31283599  0.08085036     0.87500
Mg3        Mg  0.19778851  0.29778561  0.95373685     1.58100
O4          O  0.10044677  0.18759620  0.05781145    -0.88200
O5          O  0.17991231  0.21876604  0.08007752    -0.75500
C6          C  0.06170819  0.21571021  0.81497279     0.92600
O7          O  0.12838324  0.36902427  0.99689223    -0.75400
O8          O  0.08740963  0.24710171  0.81163434    -0.82900
Mg9        Mg  0.15664930  0.34077386  0.06768557     1.58000
C10         C  0.03012535  0.10039301  0.98535504     0.92500
O11         O  0.18635842  0.31811084  0.13969978    -0.81100
H12         H  0.13182769  0.12795531  0.06756081    -0.06500
C13         C  0.04808067  0.26260607  0.94627701     0.87500
O14         O  0.18777554  0.21733823  0.93083881    -0.75600
O15         O  0.11274552  0.29326838  0.08414446    -0.88400
O16         O  0.03236779  0.12928324  0.02192831    -0.81200
C17         C  0.03924780  0.20782846  0.15916825     0.92600
C18         C  0.18200714  0.29110209  0.17829435     0.92500
Mg19       Mg  0.08718252  0.16687372  0.92598498     1.58000
O20         O  0.05732081  0.18917065  0.85394659    -0.81100
O21         O  0.11583890  0.13882224  0.99659159    -0.75400
O22         O  0.07141482  0.22371547  0.16499430    -0.81200
O23         O  0.20088392  0.39506791  0.05035003    -0.82900
O24         O  0.17238547  0.28371575  0.82869456    -0.81200
C25         C  0.11624413  0.15044637  0.04205083     0.86900
O26         O  0.13096615  0.21461624  0.90961628    -0.88400
O27         O  0.06268293  0.22608812  0.96594171    -0.88500
O28         O  0.06416144  0.28932539  0.91417026    -0.75500
Mg29       Mg  0.12518561  0.22349970  0.11924751     1.58000
O30         O  0.02786997  0.19430836  0.11716836    -0.82900
H31         H  0.22287345  0.23537737  0.03677638    -0.06600
O32         O  0.14399630  0.32051542  0.93550233    -0.88200
H33         H  0.11288238  0.38042315  0.92580499    -0.06500
H34         H  0.16383353  0.15646469  0.90197165    -0.06700
C35         C  0.12825116  0.35768491  0.95134726     0.86900
C36         C  0.19594083  0.24534395  0.04782744     0.87500
C37         C  0.16088507  0.19480363  0.91280634     0.87500
H38         H  0.02125962  0.27280577  0.95761957    -0.06600
O39         O  0.05594460  0.28998258  0.06290588    -0.75700
Mg40       Mg  0.11867305  0.28435294  0.87445486     1.58000
H41         H  0.07960884  0.35117105  0.09160748    -0.06600
C42         C  0.21466017  0.40665843  0.00887993     0.92500
O43         O  0.21705952  0.31155625  0.87604428    -0.82900
C44         C  0.20496167  0.29808347  0.83434752     0.92600
O45         O  0.15609625  0.26012292  0.18229455    -0.82900
Mg46       Mg  0.04657848  0.20930420  0.03996272     1.58200
O47         O  0.21308009  0.37745304  0.97246682    -0.81200
O48         O  0.04314471  0.11185585  0.94340941    -0.82900
O49         O  0.43806101  0.77900985  0.03464090    -0.88500
C50         C  0.33994018  0.81232313  0.08614135     0.87500
Mg51       Mg  0.45404824  0.79387737  0.96037176     1.58100
O52         O  0.35570348  0.68607665  0.06541562    -0.88200
O53         O  0.43589446  0.71603420  0.08662674    -0.75500
C54         C  0.31866091  0.71007701  0.82252293     0.92600
O55         O  0.38547798  0.86619506  0.00213058    -0.75400
O56         O  0.34499806  0.74030242  0.81886044    -0.82900
Mg57       Mg  0.41380675  0.83908162  0.07341739     1.58000
C58         C  0.28342577  0.59965948  0.99416976     0.92500
O59         O  0.44329111  0.81766311  0.14631156    -0.81100
H60         H  0.38536446  0.62513231  0.07730953    -0.06500
C61         C  0.30405359  0.75966122  0.95219215     0.87500
O62         O  0.44388045  0.71261991  0.93962571    -0.75600
O63         O  0.36971551  0.79217710  0.08993176    -0.88400
O64         O  0.28569916  0.62922224  0.03023101    -0.81200
C65         C  0.29536093  0.71153380  0.16599289     0.92600
C66         C  0.43847075  0.79119696  0.18527170     0.92500
Mg67       Mg  0.34243196  0.66297408  0.93472293     1.58000
O68         O  0.31333941  0.68471244  0.86200179    -0.81100
O69         O  0.37013994  0.63489362  0.00588543    -0.75400
O70         O  0.32795880  0.72577285  0.17108687    -0.81200
O71         O  0.45819516  0.89304507  0.05520054    -0.82900
O72         O  0.42924450  0.77415429  0.83720567    -0.81200
C73         C  0.37057741  0.64770115  0.05097688     0.86900
O74         O  0.38699608  0.70929581  0.91848468    -0.88400
O75         O  0.31842844  0.72361568  0.97299640    -0.88500
O76         O  0.32048016  0.78540470  0.91966216    -0.75500
Mg77       Mg  0.38137487  0.72271821  0.12577073     1.58000
O78         O  0.28319900  0.69683534  0.12480393    -0.82900
H79         H  0.47915235  0.73185912  0.04362751    -0.06600
O80         O  0.40022470  0.81547675  0.94221028    -0.88200
H81         H  0.36946877  0.87550977  0.93095538    -0.06500
H82         H  0.41976850  0.65072433  0.91311622    -0.06700
C83         C  0.38482706  0.85335310  0.95700772     0.86900
C84         C  0.45234560  0.74245714  0.05466942     0.87500
C85         C  0.41688189  0.68945879  0.92256155     0.87500
H86         H  0.27716484  0.77028068  0.96283665    -0.06600
O87         O  0.31291265  0.78977701  0.06848461    -0.75700
Mg88       Mg  0.37543149  0.77820255  0.88152896     1.58000
H89         H  0.33724604  0.85094499  0.09611160    -0.06600
C90         C  0.47082543  0.90398809  0.01289304     0.92500
O91         O  0.47310984  0.80625885  0.88270049    -0.82900
C92         C  0.46158018  0.78953011  0.84195490     0.92600
O93         O  0.41269355  0.75996716  0.18799405    -0.82900
Mg94       Mg  0.30204289  0.70905429  0.04719192     1.58200
O95         O  0.46840419  0.87453511  0.97672522    -0.81200
O96         O  0.29731892  0.61029597  0.95252796    -0.82900
O97         O  0.43151947  0.21592295  0.46660355    -0.88500
C98         C  0.33296610  0.18513648  0.41260684     0.87500
Mg99       Mg  0.44727055  0.19949069  0.54078757     1.58100
O100        O  0.35022155  0.31069188  0.43508419    -0.88200
O101        O  0.42990353  0.27927285  0.41496705    -0.75500
C102        C  0.31142426  0.28332743  0.67700654     0.92600
O103        O  0.37840313  0.12824140  0.49656045    -0.75400
O104        O  0.33712715  0.25210281  0.67977851    -0.82900
Mg105      Mg  0.40720860  0.15681138  0.42635128     1.58000
C106        C  0.28006233  0.39887546  0.50557599     0.92500
O107        O  0.43750554  0.18043018  0.35480697    -0.81100
H108        H  0.38120596  0.37067857  0.42470102    -0.06500
C109        C  0.29745336  0.23595045  0.54549034     0.87500
O110        O  0.43759182  0.28030747  0.56300858    -0.75600
O111        O  0.36308800  0.20453863  0.40999178    -0.88400
O112        O  0.28204166  0.36950111  0.46942713    -0.81200
C113        C  0.28992519  0.28919323  0.33271735     0.92600
C114        C  0.43235963  0.20716377  0.31610082     0.92500
Mg115      Mg  0.33667531  0.33179677  0.56589553     1.58000
O116        O  0.30674836  0.30988796  0.63807536    -0.81100
O117        O  0.36547292  0.36013594  0.49575887    -0.75800
O118        O  0.32211850  0.27308156  0.32835027    -0.81200
O119        O  0.45151983  0.10186020  0.44439948    -0.82900
O120        O  0.42152462  0.21594181  0.66459740    -0.81200
C121        C  0.36581748  0.34820787  0.45042392     0.86900
O122        O  0.38050363  0.28393054  0.58245895    -0.88400
O123        O  0.31193889  0.27261898  0.52591959    -0.88500
O124        O  0.31359717  0.20932384  0.57766429    -0.75500
Mg125      Mg  0.37540475  0.27415032  0.37488418     1.58000
O126        O  0.27774629  0.30433927  0.37365222    -0.82900
H127        H  0.47284692  0.26291303  0.45853595    -0.06600
O128        O  0.39327610  0.17766520  0.55758201    -0.88200
H129        H  0.36232508  0.11754343  0.56747157    -0.06500
H130        H  0.41364293  0.34187574  0.59026005    -0.06700
C131        C  0.37778966  0.14014129  0.54194672     0.86900
C132        C  0.44604465  0.25257649  0.44707492     0.87500
C133        C  0.41057876  0.30343264  0.57980682     0.87500
H134        H  0.27067929  0.22552156  0.53398988    -0.06600
O135        O  0.30591631  0.20842410  0.42916293    -0.75700
Mg136      Mg  0.36802481  0.21449513  0.61791329     1.58000
H137        H  0.32984940  0.14669443  0.40217459    -0.06600
C138        C  0.46391194  0.09015406  0.48669452     0.92500
O139        O  0.46570169  0.18535435  0.61858550    -0.82900
C140        C  0.45389161  0.20056605  0.65973360     0.92600
O141        O  0.40597745  0.23721315  0.31276121    -0.82900
Mg142      Mg  0.29613003  0.28929948  0.45161418     1.58200
O143        O  0.46167960  0.11935469  0.52312149    -0.81200
O144        O  0.29266212  0.38650162  0.54764739    -0.82900
O145        O  0.18790263  0.72558999  0.47272492    -0.88500
C146        C  0.09018836  0.69346838  0.41755801     0.87500
Mg147      Mg  0.20426414  0.70638037  0.54593478     1.58100
O148        O  0.10493950  0.81857218  0.44554969    -0.88200
O149        O  0.18526482  0.79115166  0.42399525    -0.75500
C150        C  0.06827309  0.77992435  0.68614910     0.92600
O151        O  0.13597004  0.63531760  0.49963518    -0.75400
O152        O  0.09457331  0.74960454  0.68870689    -0.82900
Mg153      Mg  0.16413550  0.66729244  0.43047030     1.58000
C154        C  0.03217222  0.89918435  0.52047145     0.92500
O155        O  0.19325737  0.69373782  0.35980446    -0.81100
H156        H  0.13408457  0.88057938  0.43713396    -0.06500
C157        C  0.05417192  0.73742346  0.55399570     0.87500
O158        O  0.19370978  0.78588483  0.57185232    -0.75600
O159        O  0.11975349  0.71444270  0.41587970    -0.88400
O160        O  0.03512903  0.87126808  0.48319802    -0.81200
C161        C  0.04489180  0.79866191  0.34291988     0.92600
C162        C  0.18853303  0.72211318  0.32221345     0.92500
Mg163      Mg  0.09165901  0.83382418  0.57716765     1.58000
O164        O  0.06314149  0.80739872  0.64805079    -0.81100
O165        O  0.11916583  0.86641519  0.50793621    -0.75400
O166        O  0.07763149  0.78536728  0.33707738    -0.81200
O167        O  0.20897922  0.61255953  0.44580042    -0.82900
O168        O  0.17922525  0.71639736  0.67047483    -0.81200
C169        C  0.11953031  0.85629724  0.46215585     0.86900
O170        O  0.13661344  0.78702552  0.59155795    -0.88400
O171        O  0.06820896  0.77487566  0.53534116    -0.88500
O172        O  0.07076181  0.71026187  0.58524815    -0.75500
Mg173      Mg  0.13092584  0.78600405  0.38370117     1.58000
O174        O  0.03254811  0.81003265  0.38502295    -0.82900
H175        H  0.22852187  0.77401668  0.46665167    -0.06600
O176        O  0.15067883  0.68249030  0.56240582    -0.88200
H177        H  0.12047750  0.62137541  0.57025987    -0.06500
H178        H  0.16887411  0.84552860  0.60170756    -0.06700
C179        C  0.13552680  0.64531303  0.54547225     0.86900
C180        C  0.20186235  0.76345303  0.45477876     0.87500
C181        C  0.16637127  0.80751476  0.58962400     0.87500
H182        H  0.02742815  0.72683763  0.54250428    -0.06600
O183        O  0.06278770  0.71424012  0.43600912    -0.75700
Mg184      Mg  0.12547058  0.71572366  0.62463629     1.58000
H185        H  0.08800702  0.65558348  0.40498305    -0.06600
C186        C  0.22137070  0.59922481  0.48769592     0.92500
O187        O  0.22330748  0.68871851  0.62285448    -0.82900
C188        C  0.21162164  0.70150078  0.66490528     0.92600
O189        O  0.16252165  0.75290244  0.32018381    -0.82900
Mg190      Mg  0.05157975  0.79330579  0.46197982     1.58200
O191        O  0.21906275  0.62773366  0.52444245    -0.81200
O192        O  0.04578856  0.88737555  0.56200537    -0.82900
C193        C  0.51216359  0.04009340  0.52497339    -0.05900
C194        C  0.48146860  0.04144647  0.49477534     0.00000
C195        C  0.00346612  0.01829625  0.45684639    -0.08600
C196        C  0.01950519  0.97231020  0.46802251    -0.05900
C197        C  0.01388010  0.94757299  0.51338996     0.00000
C198        C  0.52979439  0.99529686  0.53669985    -0.08500
C199        C  0.56386444  0.99648128  0.56772474     0.61900
H200        H  0.52246386  0.07483295  0.53905892     0.12600
H201        H  0.03709011  0.95534509  0.44121580     0.12600
C202        C  0.01191615  0.04398704  0.40790631     0.62100
F203        F  0.57439873  0.04460313  0.57823177    -0.23000
F204        F  0.59169207  0.97397019  0.54262368    -0.20400
F205        F  0.55816362  0.97180413  0.61210636    -0.20000
F206        F  0.02295967  0.09234383  0.41597426    -0.20100
F207        F  0.98169311  0.04422993  0.37814116    -0.20400
F208        F  0.03913777  0.02011582  0.38269620    -0.23100
C209        C  0.25960079  0.47792195  0.54172043    -0.05900
C210        C  0.26381686  0.44933885  0.49901057     0.00000
C211        C  0.25445901  0.47086887  0.45237516    -0.08600
C212        C  0.24169994  0.52007701  0.45097103    -0.05900
C213        C  0.23758486  0.54868089  0.49374340     0.00000
C214        C  0.24683010  0.52701521  0.54037174    -0.08500
C215        C  0.24336723  0.55438457  0.58912097     0.61900
H216        H  0.26656722  0.46133980  0.57701263     0.12600
H217        H  0.23459969  0.53666952  0.41572253     0.12600
C218        C  0.25772159  0.44313508  0.40383286     0.62100
F219        F  0.25407683  0.52548967  0.62917228    -0.23000
F220        F  0.20789854  0.56754323  0.59693795    -0.20400
F221        F  0.26490639  0.59633990  0.58835160    -0.20000
F222        F  0.23612198  0.40124743  0.40503883    -0.20100
F223        F  0.29312512  0.42970761  0.39594990    -0.20400
F224        F  0.24694078  0.47183222  0.36367624    -0.23100
C225        C  0.02334348  0.77863611  0.81325529    -0.05900
C226        C  0.48788555  0.78612997  0.80059630     0.00000
C227        C  0.47876855  0.79223537  0.75004796    -0.08600
C228        C  0.50632338  0.79023067  0.71450441    -0.05900
C229        C  0.04169506  0.78280886  0.72720047     0.00000
C230        C  0.05065014  0.77503585  0.77763463    -0.08500
C231        C  0.08866362  0.76313804  0.79436508     0.61900
H232        H  0.02987176  0.77216919  0.85176883     0.12600
H233        H  0.49965160  0.79475140  0.67578458     0.12600
C234        C  0.44029362  0.80013532  0.73328943     0.62100
F235        F  0.09217549  0.76432844  0.84523762    -0.23000
F236        F  0.11241932  0.79756260  0.77454519    -0.20400
F237        F  0.09773075  0.71589269  0.77922072    -0.20000
F238        F  0.42522170  0.83966900  0.75802575    -0.20100
F239        F  0.42085706  0.75736312  0.74293942    -0.20400
F240        F  0.43795989  0.81028246  0.68314651    -0.23100
C241        C  0.99851879  0.81502498  0.21732338    -0.05900
C242        C  0.46467671  0.79595867  0.22729063     0.00000
C243        C  0.45694032  0.78068870  0.27666907    -0.08600
C244        C  0.48421002  0.78369805  0.31256749    -0.05900
C245        C  0.01879582  0.79778733  0.30123406     0.00000
C246        C  0.02572138  0.81777722  0.25365347    -0.08500
C247        C  0.06118171  0.84304466  0.24166795     0.61900
H248        H  0.00403990  0.82912339  0.18051453     0.12600
H249        H  0.47884462  0.77080534  0.34987159     0.12600
C250        C  0.42022723  0.76154439  0.29241141     0.62100
F251        F  0.06087486  0.86510908  0.19521938    -0.23000
F252        F  0.08857249  0.80842915  0.24293547    -0.20400
F253        F  0.06812430  0.87968035  0.27582016    -0.20000
F254        F  0.41432979  0.71518217  0.27243424    -0.20100
F255        F  0.39383425  0.79437771  0.27679222    -0.20400
F256        F  0.41736166  0.75674676  0.34322231    -0.23100
C257        C  0.27438029  0.70883944  0.69466166    -0.05900
C258        C  0.23796562  0.70131676  0.70680062     0.00000
C259        C  0.22869208  0.69370793  0.75715238    -0.08600
C260        C  0.25605232  0.69584241  0.79327721    -0.05900
C261        C  0.29223777  0.70544820  0.78111217     0.00000
C262        C  0.30164691  0.71098022  0.73060442    -0.08500
C263        C  0.34013972  0.71936401  0.71406673     0.61900
H264        H  0.28143643  0.71461356  0.65625928     0.12600
H265        H  0.24907753  0.69137940  0.83187160     0.12600
C266        C  0.19034775  0.68316980  0.77305636     0.62100
F267        F  0.34398918  0.71453866  0.66350651    -0.23000
F268        F  0.36256243  0.68486214  0.73658470    -0.20400
F269        F  0.35062279  0.76693882  0.72632752    -0.20000
F270        F  0.17670022  0.64356630  0.74681888    -0.20100
F271        F  0.16955205  0.72488177  0.76451732    -0.20400
F272        F  0.18806030  0.67124518  0.82283223    -0.23100
C273        C  0.25030755  0.70385159  0.29273345    -0.05900
C274        C  0.21515174  0.71978903  0.28105153     0.00000
C275        C  0.20695003  0.73294085  0.23133083    -0.08600
C276        C  0.23425953  0.72983177  0.19568225    -0.05900
C277        C  0.26936428  0.71444267  0.20750333     0.00000
C278        C  0.27762971  0.70099323  0.25689483    -0.08500
C279        C  0.31475919  0.68285473  0.27171283     0.61900
H280        H  0.25652781  0.69426532  0.33072384     0.12600
H281        H  0.22845154  0.74034173  0.15778218     0.12600
C282        C  0.16976818  0.75001851  0.21518759     0.62100
F283        F  0.31588088  0.66654439  0.32037163    -0.23000
F284        F  0.33916899  0.72122928  0.26646116    -0.20400
F285        F  0.32487225  0.64368749  0.24217135    -0.20000
F286        F  0.16285886  0.79644933  0.23432451    -0.20100
F287        F  0.14406821  0.71643130  0.23145307    -0.20400
F288        F  0.16677951  0.75374113  0.16431084    -0.23100
C289        C  0.01602867  0.21538369  0.68764850    -0.05900
C290        C  0.48027962  0.20332859  0.70111478     0.00000
C291        C  0.47267963  0.18924665  0.75053545    -0.08600
C292        C  0.50011348  0.19360787  0.78633893    -0.05900
C293        C  0.03501936  0.21058180  0.77373415     0.00000
C294        C  0.04352482  0.21928238  0.72324925    -0.08500
C295        C  0.08143107  0.23168902  0.70627492     0.61900
H296        H  0.02215976  0.22323231  0.64926897     0.12600
H297        H  0.49418802  0.18421284  0.82444317     0.12600
C298        C  0.43630551  0.16828265  0.76523350     0.62100
F299        F  0.08462139  0.23049949  0.65537420    -0.23000
F300        F  0.10545341  0.19749725  0.72588998    -0.20400
F301        F  0.09056338  0.27895851  0.72131132    -0.20000
F302        F  0.42744549  0.12907205  0.73494295    -0.20100
F303        F  0.41045248  0.20486544  0.76089005    -0.20400
F304        F  0.43612473  0.15084341  0.81354916    -0.23100
C305        C  0.47662322  0.21128852  0.18890729    -0.05900
C306        C  0.01283105  0.20643112  0.20077304     0.00000
C307        C  0.02215050  0.19812974  0.25103686    -0.08600
C308        C  0.99449805  0.19694058  0.28672306    -0.05900
C309        C  0.45902709  0.20502701  0.27511667     0.00000
C310        C  0.44928146  0.21005862  0.22469604    -0.08500
C311        C  0.41025142  0.21295822  0.20809515     0.61900
H312        H  0.46925378  0.21647186  0.15051370     0.12600
H313        H  0.00131972  0.19192445  0.32533929     0.12600
C314        C  0.06079248  0.18976548  0.26721892     0.62100
F315        F  0.40684755  0.20762557  0.15751942    -0.23000
F316        F  0.39588706  0.25855407  0.22034772    -0.20400
F317        F  0.39055574  0.17533915  0.23051795    -0.20000
F318        F  0.08042050  0.23295695  0.26024132    -0.20100
F319        F  0.07588566  0.15188673  0.24008590    -0.20400
F320        F  0.06313423  0.17644297  0.31665917    -0.23100
C321        C  0.26426731  0.27286473  0.80314058    -0.05900
C322        C  0.23115472  0.29573947  0.79297633     0.00000
C323        C  0.22518492  0.31700501  0.74569471    -0.08600
C324        C  0.25221996  0.31254415  0.70944752    -0.05900
C325        C  0.28523215  0.28818004  0.71896891     0.00000
C326        C  0.29153208  0.26872954  0.76742736    -0.08500
C327        C  0.32670447  0.24405228  0.78248516     0.61900
H328        H  0.26842314  0.25737624  0.83980468     0.12600
H329        H  0.24738003  0.32784259  0.67290815     0.12600
C330        C  0.19106567  0.34577485  0.73414037     0.62100
F331        F  0.32822297  0.23389612  0.83268732    -0.23000
F332        F  0.35518953  0.27523949  0.77115377    -0.20400
F333        F  0.33045325  0.19940390  0.75823152    -0.20000
F334        F  0.18666413  0.38321854  0.76817400    -0.20100
F335        F  0.16179388  0.31420514  0.73617582    -0.20400
F336        F  0.19200630  0.36744697  0.68752580    -0.23100
C337        C  0.22895622  0.24867057  0.22743791    -0.05900
C338        C  0.20969937  0.29258083  0.21772119     0.00000
C339        C  0.21815415  0.33611754  0.24423949    -0.08600
C340        C  0.24556502  0.33386026  0.28023872    -0.05900
C341        C  0.26493976  0.28990600  0.28989503     0.00000
C342        C  0.25655640  0.24647151  0.26308796    -0.08500
C343        C  0.27553332  0.19748788  0.27349167     0.61900
H344        H  0.22220652  0.21590653  0.20648092     0.12600
H345        H  0.25190069  0.36645400  0.30168958     0.12600
C346        C  0.19740253  0.38405588  0.23594466     0.62100
F347        F  0.26163208  0.15926170  0.24549719    -0.23000
F348        F  0.27159734  0.18449103  0.32275270    -0.20400
F349        F  0.31167373  0.20198295  0.26248281    -0.20000
F350        F  0.16105981  0.37531105  0.24245408    -0.20100
F351        F  0.20327888  0.40187255  0.18855559    -0.20400
F352        F  0.20775861  0.42059584  0.26862963    -0.23100
C353        C  0.46814044  0.99448502  0.02391740    -0.05900
C354        C  0.48681974  0.95359042  0.00498133     0.00000
C355        C  0.01968311  0.96113733  0.98024196    -0.08600
C356        C  0.03230546  0.00996042  0.97350153    -0.05900
C357        C  0.01376105  0.05091994  0.99250566     0.00000
C358        C  0.48067327  0.04335238  0.01727594    -0.08500
C359        C  0.45855524  0.08650253  0.03643297     0.61900
H360        H  0.44324701  0.98781630  0.04363059     0.12600
H361        H  0.05719848  0.01654063  0.95376548     0.12600
C362        C  0.04145970  0.91791438  0.96056838     0.62100
F363        F  0.42475227  0.07131851  0.05177303    -0.23000
F364        F  0.45402712  0.12194107  0.99948113    -0.20400
F365        F  0.47574799  0.10772782  0.07625163    -0.20000
F366        F  0.02347183  0.89633432  0.92160739    -0.20100
F367        F  0.04678852  0.88279073  0.99760882    -0.20400
F368        F  0.07489142  0.93305826  0.94373463    -0.23100
C369        C  0.24643125  0.47745071  0.04630318    -0.05900
C370        C  0.23258535  0.45572288  0.00337672     0.00000
C371        C  0.23415974  0.48260765  0.95790147    -0.08600
C372        C  0.25036971  0.52974708  0.95733851    -0.05900
C373        C  0.26454754  0.55129538  0.00015465     0.00000
C374        C  0.26221879  0.52489646  0.04586900    -0.08500
C375        C  0.27655389  0.54561339  0.09411701     0.61900
H376        H  0.24475236  0.45668455  0.08071142     0.12600
H377        H  0.25207627  0.55043847  0.92288803     0.12600
C378        C  0.21825828  0.46290608  0.91013267     0.62100
F379        F  0.27363876  0.51170724  0.13280428    -0.23000
F380        F  0.25713792  0.58736678  0.10682622    -0.20400
F381        F  0.31252411  0.55772634  0.08915991    -0.20000
F382        F  0.18260323  0.45008604  0.91727390    -0.20100
F383        F  0.23745221  0.42184692  0.89493246    -0.20400
F384        F  0.21944194  0.49790376  0.87223922    -0.23100
O385        O  0.68139733  0.28165718  0.02663106    -0.88500
C386        C  0.58282715  0.31267897  0.08028489     0.87500
Mg387      Mg  0.69799450  0.29801729  0.95261200     1.58100
O388        O  0.60035846  0.18729685  0.05758072    -0.88200
O389        O  0.67991137  0.21875180  0.07880788    -0.75500
C390        C  0.56174912  0.21558051  0.81548041     0.92600
O391        O  0.62832335  0.36913110  0.99591196    -0.75400
O392        O  0.58749390  0.24681705  0.81205202    -0.82900
Mg393      Mg  0.65669091  0.34084736  0.06650646     1.58000
C394        C  0.52986295  0.10033455  0.98491544     0.92500
O395        O  0.68652937  0.31837028  0.13827186    -0.81100
H396        H  0.63153403  0.12750095  0.06764378    -0.06500
C397        C  0.54820458  0.26262973  0.94643232     0.87500
O398        O  0.68808727  0.21746336  0.92989851    -0.75600
O399        O  0.61286140  0.29314772  0.08308154    -0.88400
O400        O  0.53199498  0.12899103  0.02171191    -0.81200
C401        C  0.53953979  0.20801358  0.15919803     0.92600
C402        C  0.68227829  0.29145611  0.17692334     0.92500
Mg403      Mg  0.58728532  0.16676961  0.92609407     1.58000
O404        O  0.55740868  0.18905024  0.85441728    -0.81100
O405        O  0.61586178  0.13842156  0.99655411    -0.75400
O406        O  0.57172091  0.22403795  0.16454671    -0.81200
O407        O  0.70079846  0.39528056  0.04905142    -0.82900
O408        O  0.67237602  0.28322879  0.82800503    -0.81200
C409        C  0.61610159  0.15003891  0.04199963     0.86900
O410        O  0.63109626  0.21459934  0.90979125    -0.88400
O411        O  0.56260348  0.22589484  0.96600386    -0.88500
O412        O  0.56439937  0.28926732  0.91435097    -0.75500
Mg413      Mg  0.62535350  0.22357048  0.11847038     1.58000
O414        O  0.52797325  0.19404734  0.11741874    -0.82900
H415        H  0.72285832  0.23507868  0.03538063    -0.06600
O416        O  0.64419756  0.32061631  0.93470802    -0.88200
H417        H  0.61304721  0.38044086  0.92472978    -0.06500
H418        H  0.66389921  0.15643780  0.90169973    -0.06700
C419        C  0.62837546  0.35778264  0.95038892     0.86900
C420        C  0.69600497  0.24529127  0.04656805     0.87500
C421        C  0.66103481  0.19479901  0.91250097     0.87500
H422        H  0.52145733  0.27310461  0.95785199    -0.06600
O423        O  0.55588427  0.28972114  0.06290407    -0.75700
Mg424      Mg  0.61879084  0.28413549  0.87425916     1.58000
H425        H  0.57976213  0.35101638  0.09106816    -0.06600
C426        C  0.71458806  0.40693044  0.00760539     0.92500
O427        O  0.71705240  0.31186326  0.87479260    -0.82900
C428        C  0.70491369  0.29793657  0.83326105     0.92600
O429        O  0.65643580  0.26041557  0.18111910    -0.82900
Mg430      Mg  0.54645720  0.20902720  0.03999275     1.58200
O431        O  0.71311870  0.37777811  0.97114379    -0.81200
O432        O  0.54320449  0.11191380  0.94320997    -0.82900
O433        O  0.93785269  0.77917093  0.03452516    -0.88500
C434        C  0.83970956  0.81216468  0.08598661     0.87500
Mg435      Mg  0.95378974  0.79477470  0.96041674     1.58100
O436        O  0.85540126  0.68601430  0.06473330    -0.88200
O437        O  0.93555036  0.71571836  0.08593889    -0.75500
C438        C  0.81845507  0.71143302  0.82216488     0.92600
O439        O  0.88540214  0.86697876  0.00282419    -0.75400
O440        O  0.84454530  0.74211127  0.81884557    -0.82900
Mg441      Mg  0.91368587  0.83897537  0.07381923     1.58000
C442        C  0.78338629  0.59978320  0.99338431     0.92500
O443        O  0.94317506  0.81661533  0.14636773    -0.81100
H444        H  0.88519161  0.62514460  0.07636427    -0.06500
C445        C  0.80368696  0.76013493  0.95218715     0.87500
O446        O  0.94364705  0.71374562  0.93883067    -0.75600
O447        O  0.86948434  0.79199691  0.08971359    -0.88400
O448        O  0.78554145  0.62923205  0.02954705    -0.81200
C449        C  0.79503877  0.71135948  0.16542468     0.92600
C450        C  0.93821310  0.78979919  0.18504552     0.92500
Mg451      Mg  0.84228555  0.66367337  0.93404294     1.58000
O452        O  0.81324013  0.68565766  0.86141497    -0.81100
O453        O  0.87007019  0.63527369  0.00495503    -0.75400
O454        O  0.82765850  0.72548552  0.17046642    -0.81200
O455        O  0.95823524  0.89297014  0.05626870    -0.82900
O456        O  0.92879420  0.77646149  0.83706870    -0.81200
C457        C  0.87038279  0.64779145  0.05012051     0.86900
O458        O  0.88671870  0.71042237  0.91799379    -0.88400
O459        O  0.81809342  0.72393159  0.97266805    -0.88500
O460        O  0.82011307  0.78628787  0.91998315    -0.75500
Mg461      Mg  0.88102529  0.72230889  0.12514280     1.58000
O462        O  0.78284422  0.69649735  0.12432083    -0.82900
H463        H  0.97883558  0.73175659  0.04305922    -0.06600
O464        O  0.89991742  0.81654783  0.94258681    -0.88200
H465        H  0.86937508  0.87686053  0.93171905    -0.06500
H466        H  0.91957971  0.65204122  0.91182489    -0.06700
C467        C  0.88466086  0.85443007  0.95762173     0.86900
C468        C  0.95205552  0.74236652  0.05421036     0.87500
C469        C  0.91664699  0.69065753  0.92169094     0.87500
H470        H  0.77677488  0.77057189  0.96290061    -0.06600
O471        O  0.81265450  0.78965765  0.06834511    -0.75700
Mg472      Mg  0.87502176  0.77968100  0.88167593     1.58000
H473        H  0.83702778  0.85076268  0.09604901    -0.06600
C474        C  0.97096463  0.90419916  0.01408981     0.92500
O475        O  0.97269329  0.80808757  0.88289756    -0.82900
C476        C  0.96111093  0.79190325  0.84197013     0.92600
O477        O  0.91221298  0.75896989  0.18746771    -0.82900
Mg478      Mg  0.80174456  0.70900813  0.04676419     1.58200
O479        O  0.96838064  0.87515545  0.97761918    -0.81200
O480        O  0.79728190  0.61058706  0.95176368    -0.82900
O481        O  0.93072491  0.21436379  0.46546231    -0.88500
C482        C  0.83179626  0.18555491  0.41119348     0.87500
Mg483      Mg  0.94666280  0.19774232  0.53958496     1.58100
O484        O  0.85032971  0.31075519  0.43402077    -0.88200
O485        O  0.92972942  0.27775330  0.41385199    -0.75500
C486        C  0.81140735  0.28367956  0.67574663     0.92600
O487        O  0.87684294  0.12780932  0.49550716    -0.75400
O488        O  0.83710751  0.25243868  0.67867986    -0.82900
Mg489      Mg  0.90576811  0.15584016  0.42517745     1.58000
C490        C  0.78080611  0.40001098  0.50433120     0.92500
O491        O  0.93614483  0.17900838  0.35353249    -0.81100
H492        H  0.88177153  0.37027269  0.42356448    -0.06500
C493        C  0.79714325  0.23654827  0.54431792     0.87500
O494        O  0.93754178  0.27872134  0.56166710    -0.75600
O495        O  0.86210355  0.20441083  0.40882072    -0.88400
O496        O  0.78259343  0.37055622  0.46825411    -0.81200
C497        C  0.78989967  0.29056017  0.33155075     0.92600
C498        C  0.93129216  0.20597845  0.31490470     0.92500
Mg499      Mg  0.83695811  0.33195091  0.56467860     1.58000
O500        O  0.80677310  0.31019058  0.63676646    -0.81100
O501        O  0.86599808  0.35999631  0.49464050    -0.75800
O502        O  0.82199017  0.27407410  0.32736224    -0.81200
O503        O  0.94968266  0.10026249  0.44314310    -0.82900
O504        O  0.92161210  0.21543004  0.66323383    -0.81200
C505        C  0.86622410  0.34804774  0.44931473     0.86900
O506        O  0.88048866  0.28337225  0.58106946    -0.88400
O507        O  0.81174591  0.27312408  0.52469591    -0.88500
O508        O  0.81319216  0.20981693  0.57653912    -0.75500
Mg509      Mg  0.87516409  0.27387575  0.37383916     1.58000
O510        O  0.77771757  0.30586352  0.37242223    -0.82900
H511        H  0.97256628  0.26043277  0.45725444    -0.06600
O512        O  0.89256221  0.17666610  0.55664446    -0.88200
H513        H  0.86088485  0.11726020  0.56648842    -0.06500
H514        H  0.91411531  0.34081612  0.58859764    -0.06700
C515        C  0.87655587  0.13956585  0.54094969     0.86900
C516        C  0.94562674  0.25069052  0.44588412     0.87500
C517        C  0.91072062  0.30237969  0.57830958     0.87500
H518        H  0.77031669  0.22631890  0.53286776    -0.06600
O519        O  0.80494394  0.20928055  0.42771573    -0.75700
Mg520      Mg  0.86773843  0.21426424  0.61682704     1.58000
H521        H  0.82832922  0.14722503  0.40057089    -0.06600
C522        C  0.96289265  0.08860978  0.48499192     0.92500
O523        O  0.96548931  0.18369588  0.61752308    -0.82900
C524        C  0.95392654  0.19966666  0.65854660     0.92600
O525        O  0.90520858  0.23650535  0.31161840    -0.82900
Mg526      Mg  0.79600186  0.29025266  0.45038241     1.58200
O527        O  0.96061810  0.11738772  0.52176848    -0.81200
O528        O  0.79336674  0.38754459  0.54641911    -0.82900
O529        O  0.68806701  0.72646570  0.47196205    -0.88500
C530        C  0.58976687  0.69638037  0.41701995     0.87500
Mg531      Mg  0.70463830  0.70679161  0.54498538     1.58100
O532        O  0.60578778  0.82098837  0.44605805    -0.88200
O533        O  0.68577864  0.79230157  0.42354341    -0.75500
C534        C  0.56908767  0.77884101  0.68644499     0.92600
O535        O  0.63566870  0.63636766  0.49847423    -0.75400
O536        O  0.59531212  0.74840885  0.68855766    -0.82900
Mg537      Mg  0.66372289  0.66863713  0.42951242     1.58000
C538        C  0.53439149  0.90220624  0.52293656     0.92500
O539        O  0.69269308  0.69523610  0.35884472    -0.81100
H540        H  0.63580668  0.88233201  0.43871167    -0.06500
C541        C  0.55471299  0.73899916  0.55347494     0.87500
O542        O  0.69441240  0.78599154  0.57164418    -0.75600
O543        O  0.61958731  0.71667901  0.41555852    -0.88400
O544        O  0.53664808  0.87501572  0.48500180    -0.81200
C545        C  0.54504388  0.80263938  0.34338033     0.92600
C546        C  0.68815578  0.72388445  0.32141116     0.92500
Mg547      Mg  0.59292286  0.83443270  0.57827590     1.58000
O548        O  0.56410384  0.80708858  0.64884013    -0.81100
O549        O  0.62068319  0.86740169  0.50929517    -0.75400
O550        O  0.57760704  0.78850436  0.33752215    -0.81200
O551        O  0.70831963  0.61302653  0.44441344    -0.82900
O552        O  0.67958555  0.71548909  0.66953644    -0.81200
C553        C  0.62092188  0.85801629  0.46332664     0.86900
O554        O  0.63741711  0.78694691  0.59178551    -0.88400
O555        O  0.56882068  0.77674625  0.53548843    -0.88500
O556        O  0.57122764  0.71117754  0.58425890    -0.75500
Mg557      Mg  0.63121528  0.78826529  0.38367856     1.58000
O558        O  0.53303567  0.81480925  0.38547514    -0.82900
H559        H  0.72907520  0.77424331  0.46575468    -0.06600
O560        O  0.65101190  0.68286999  0.56142867    -0.88200
H561        H  0.62065711  0.62189764  0.56917622    -0.06500
H562        H  0.66978938  0.84518904  0.60261725    -0.06700
C563        C  0.63563639  0.64592474  0.54439235     0.86900
C564        C  0.70227100  0.76418041  0.45406288     0.87500
C565        C  0.66719750  0.80736656  0.59000516     0.87500
H566        H  0.52794963  0.72873696  0.54178020    -0.06600
O567        O  0.56256071  0.71773489  0.43539441    -0.75700
Mg568      Mg  0.62593867  0.71545063  0.62391006     1.58000
H569        H  0.58713202  0.65865335  0.40415252    -0.06600
C570        C  0.72126581  0.59992395  0.48609731     0.92500
O571        O  0.72388332  0.68864969  0.62182191    -0.82900
C572        C  0.71206396  0.70104992  0.66393480     0.92600
O573        O  0.66233909  0.75501878  0.31959982    -0.82900
Mg574      Mg  0.55217931  0.79676058  0.46239375     1.58200
O575        O  0.71932937  0.62855284  0.52276089    -0.81200
O576        O  0.54775735  0.88899148  0.56419941    -0.82900
C577        C  0.97485521  0.01505903  0.53782184    -0.05900
C578        C  0.98058852  0.03982620  0.49244133     0.00000
C579        C  0.46695802  0.99641709  0.47664290    -0.08600
C580        C  0.48461720  0.95167340  0.48828065    -0.05900
C581        C  0.51570350  0.95041159  0.51765530     0.00000
C582        C  0.99117797  0.96917584  0.54916236    -0.08500
C583        C  0.98362275  0.94394587  0.59860334     0.61900
H584        H  0.95729442  0.03212841  0.56458960     0.12600
H585        H  0.47436822  0.91695208  0.47406748     0.12600
C586        C  0.43260582  0.99502720  0.44623795     0.62100
F587        F  0.95704892  0.96826134  0.62465826    -0.23000
F588        F  0.01444775  0.94375087  0.62718377    -0.20400
F589        F  0.97228430  0.89556866  0.59139362    -0.20000
F590        F  0.43838922  0.01735950  0.40070167    -0.20100
F591        F  0.40542044  0.01970205  0.47063352    -0.20400
F592        F  0.42106808  0.94681968  0.43822647    -0.23100
C593        C  0.76066908  0.47935483  0.54020421    -0.05900
C594        C  0.76465707  0.45054142  0.49762782     0.00000
C595        C  0.75495938  0.47179700  0.45097367    -0.08600
C596        C  0.74185489  0.52084017  0.44947166    -0.05900
C597        C  0.73782068  0.54958395  0.49213759     0.00000
C598        C  0.74761533  0.52830451  0.53875288    -0.08500
C599        C  0.74443659  0.55591754  0.58741176     0.61900
H600        H  0.76799608  0.46304428  0.57547951     0.12600
H601        H  0.73439972  0.53719105  0.41425064     0.12600
C602        C  0.75819698  0.44394272  0.40250048     0.62100
F603        F  0.75561710  0.52735065  0.62744823    -0.23000
F604        F  0.70897671  0.56880075  0.59573790    -0.20400
F605        F  0.76578178  0.59805489  0.58607361    -0.20000
F606        F  0.73664547  0.40201427  0.40386470    -0.20100
F607        F  0.79360871  0.43057963  0.39457421    -0.20400
F608        F  0.74734499  0.47251313  0.36229029    -0.23100
C609        C  0.52399050  0.77705479  0.81341462    -0.05900
C610        C  0.98739471  0.78897503  0.80060431     0.00000
C611        C  0.97842413  0.79688216  0.75026412    -0.08600
C612        C  0.00583730  0.79405431  0.71458972    -0.05900
C613        C  0.54237152  0.78076023  0.72736167     0.00000
C614        C  0.55134548  0.77350177  0.77784962    -0.08500
C615        C  0.58939476  0.76195319  0.79463532     0.61900
H616        H  0.53061006  0.77146908  0.85202171     0.12600
H617        H  0.99915347  0.79946551  0.67597593     0.12600
C618        C  0.94025041  0.80787634  0.73392061     0.62100
F619        F  0.59284825  0.76298771  0.84552170    -0.23000
F620        F  0.61300466  0.79663103  0.77493641    -0.20400
F621        F  0.59868145  0.71482979  0.77936665    -0.20000
F622        F  0.92651852  0.84724891  0.76030973    -0.20100
F623        F  0.91940896  0.76608016  0.74189909    -0.20400
F624        F  0.93826134  0.82024798  0.68421560    -0.23100
C625        C  0.49909778  0.81576880  0.21694094    -0.05900
C626        C  0.96450521  0.79356487  0.22704949     0.00000
C627        C  0.95733225  0.77553689  0.27573373    -0.08600
C628        C  0.98472601  0.77779128  0.31146121    -0.05900
C629        C  0.51877806  0.80174021  0.30175115     0.00000
C630        C  0.52622888  0.81921714  0.25333786    -0.08500
C631        C  0.56221902  0.84248576  0.24038313     0.61900
H632        H  0.50501570  0.82782749  0.17955793     0.12600
H633        H  0.97983620  0.76301885  0.34822189     0.12600
C634        C  0.92107010  0.75441222  0.29104974     0.62100
F635        F  0.56222985  0.86309451  0.19328984    -0.23000
F636        F  0.58878178  0.80668746  0.24256190    -0.20400
F637        F  0.57016707  0.87988106  0.27329606    -0.20000
F638        F  0.91554954  0.70919803  0.26847963    -0.20100
F639        F  0.89408978  0.78741297  0.27796630    -0.20400
F640        F  0.91881401  0.74645299  0.34156613    -0.23100
C641        C  0.77462790  0.70960180  0.69400203    -0.05900
C642        C  0.73829156  0.70117117  0.70592550     0.00000
C643        C  0.72890324  0.69356498  0.75624013    -0.08600
C644        C  0.75612351  0.69610646  0.79250608    -0.05900
C645        C  0.79221936  0.70657694  0.78057059     0.00000
C646        C  0.80170351  0.71264876  0.73013532    -0.08500
C647        C  0.84001755  0.72293919  0.71389013     0.61900
H648        H  0.78171245  0.71560388  0.65564161     0.12600
H649        H  0.74907315  0.69144202  0.83105361     0.12600
C650        C  0.69053768  0.68297959  0.77200670     0.62100
F651        F  0.84413859  0.71887526  0.66329666    -0.23000
F652        F  0.86320800  0.68927050  0.73616469    -0.20400
F653        F  0.84926220  0.77084269  0.72672301    -0.20000
F654        F  0.67693803  0.64335133  0.74576247    -0.20100
F655        F  0.66978237  0.72470308  0.76334144    -0.20400
F656        F  0.68813723  0.67112500  0.82178727    -0.23100
C657        C  0.74963202  0.70394209  0.29184163    -0.05900
C658        C  0.71480892  0.72135406  0.28025023     0.00000
C659        C  0.70702059  0.73561728  0.23067120    -0.08600
C660        C  0.73432289  0.73178843  0.19506917    -0.05900
C661        C  0.76904666  0.71482473  0.20684064     0.00000
C662        C  0.77695981  0.70051004  0.25608198    -0.08500
C663        C  0.81370275  0.68080825  0.27077872     0.61900
H664        H  0.75560761  0.69358859  0.32971296     0.12600
H665        H  0.72885083  0.74295428  0.15725072     0.12600
C666        C  0.67031236  0.75463186  0.21460608     0.62100
F667        F  0.81447166  0.66403948  0.31930154    -0.23000
F668        F  0.83889542  0.71823715  0.26587890    -0.20400
F669        F  0.82303498  0.64154444  0.24089071    -0.20000
F670        F  0.66428510  0.80082120  0.23484151    -0.20100
F671        F  0.64383400  0.72171173  0.22977406    -0.20400
F672        F  0.66767194  0.75978053  0.16379444    -0.23100
C673        C  0.51526961  0.21896477  0.68893217    -0.05900
C674        C  0.98043555  0.20256706  0.70004633     0.00000
C675        C  0.97218613  0.19179560  0.75010175    -0.08600
C676        C  0.99958395  0.19626949  0.78599144    -0.05900
C677        C  0.53500441  0.21064192  0.77437421     0.00000
C678        C  0.54289466  0.22240567  0.72426229    -0.08500
C679        C  0.58023850  0.23776140  0.70726090     0.61900
H680        H  0.52080314  0.22924033  0.65091083     0.12600
H681        H  0.99320840  0.18930294  0.82444441     0.12600
C682        C  0.93500590  0.17455491  0.76561102     0.62100
F683        F  0.58300175  0.23907192  0.65628600    -0.23000
F684        F  0.60545482  0.20413923  0.72487668    -0.20400
F685        F  0.58803947  0.28478897  0.72426964    -0.20000
F686        F  0.92446598  0.13463575  0.73728157    -0.20100
F687        F  0.91082653  0.21301304  0.75935843    -0.20400
F688        F  0.93406236  0.15962012  0.81469745    -0.23100
C689        C  0.97623340  0.21176967  0.18821911    -0.05900
C690        C  0.51335484  0.20696913  0.20113667     0.00000
C691        C  0.52304216  0.20014230  0.25149346    -0.08600
C692        C  0.49559699  0.19933977  0.28751048    -0.05900
C693        C  0.95807324  0.20376762  0.27408133     0.00000
C694        C  0.94867036  0.21024238  0.22366611    -0.08500
C695        C  0.90979376  0.21453244  0.20665683     0.61900
H696        H  0.96916962  0.21806142  0.14986393     0.12600
H697        H  0.50266757  0.19541599  0.32615300     0.12600
C698        C  0.56185353  0.19284923  0.26745796     0.62100
F699        F  0.90663177  0.21005366  0.15595547    -0.23000
F700        F  0.89606018  0.26035176  0.21942521    -0.20400
F701        F  0.88937862  0.17717880  0.22826224    -0.20000
F702        F  0.58107461  0.23617425  0.25918396    -0.20100
F703        F  0.57712837  0.15450969  0.24115403    -0.20400
F704        F  0.56459078  0.18085322  0.31717721    -0.23100
C705        C  0.76490817  0.27517525  0.80238064    -0.05900
C706        C  0.73103538  0.29561087  0.79168359     0.00000
C707        C  0.72427369  0.31458720  0.74362046    -0.08600
C708        C  0.75133404  0.31031573  0.70735335    -0.05900
C709        C  0.78512998  0.28848630  0.71757908     0.00000
C710        C  0.79219772  0.27145634  0.76665835    -0.08500
C711        C  0.82830094  0.25004186  0.78234849     0.61900
H712        H  0.76971635  0.26131554  0.83951547     0.12600
H713        H  0.74593927  0.32374443  0.67025469     0.12600
C714        C  0.68928621  0.34084762  0.73114890     0.62100
F715        F  0.83053608  0.24276761  0.83295751    -0.23000
F716        F  0.85553907  0.28248750  0.76883244    -0.20400
F717        F  0.83345328  0.20442806  0.76043959    -0.20000
F718        F  0.68381560  0.37938410  0.76365454    -0.20100
F719        F  0.66102592  0.30768346  0.73461215    -0.20400
F720        F  0.68946374  0.36063637  0.68371440    -0.23100
C721        C  0.72959486  0.24965467  0.22579172    -0.05900
C722        C  0.70996318  0.29325659  0.21626088     0.00000
C723        C  0.71797152  0.33682965  0.24293933    -0.08600
C724        C  0.74531371  0.33489426  0.27904979    -0.05900
C725        C  0.76501801  0.29119044  0.28862733     0.00000
C726        C  0.75710745  0.24775199  0.26154808    -0.08500
C727        C  0.77642518  0.19899838  0.27185398     0.61900
H728        H  0.72316522  0.21688169  0.20466255     0.12600
H729        H  0.75131204  0.36750850  0.30064623     0.12600
C730        C  0.69678908  0.38441221  0.23465575     0.62100
F731        F  0.76290697  0.16068914  0.24363406    -0.23000
F732        F  0.77241956  0.18574822  0.32103909    -0.20400
F733        F  0.81256319  0.20403049  0.26105814    -0.20000
F734        F  0.66051490  0.37500072  0.24100657    -0.20100
F735        F  0.70258468  0.40241335  0.18730926    -0.20400
F736        F  0.70673504  0.42106789  0.26744003    -0.23100
C737        C  0.96868311  0.99465279  0.02557924    -0.05900
C738        C  0.98724549  0.95368551  0.00661633     0.00000
C739        C  0.51914826  0.96121381  0.97840233    -0.08600
C740        C  0.53184794  0.01005186  0.97214762    -0.05900
C741        C  0.51333520  0.05089386  0.99146150     0.00000
C742        C  0.98128934  0.04347137  0.01882737    -0.08500
C743        C  0.95949565  0.08665707  0.03859201     0.61900
H744        H  0.94382153  0.98807702  0.04539582     0.12600
H745        H  0.55676942  0.01673895  0.95251643     0.12600
C746        C  0.54067944  0.91817742  0.95785394     0.62100
F747        F  0.92579333  0.07161071  0.05446824    -0.23000
F748        F  0.95473853  0.12234391  0.00193492    -0.20400
F749        F  0.97714730  0.10752242  0.07823151    -0.20000
F750        F  0.52227125  0.89712026  0.91896576    -0.20100
F751        F  0.54631744  0.88260861  0.99438030    -0.20400
F752        F  0.57396042  0.93342703  0.94055617    -0.23100
C753        C  0.74713440  0.47698239  0.04496735    -0.05900
C754        C  0.73247384  0.45597635  0.00221328     0.00000
C755        C  0.73321625  0.48352641  0.95710144    -0.08600
C756        C  0.74958688  0.53055849  0.95661438    -0.05900
C757        C  0.76456466  0.55140261  0.99925499     0.00000
C758        C  0.76297330  0.52438173  0.04467928    -0.08500
C759        C  0.77811435  0.54440552  0.09275548     0.61900
H760        H  0.74601866  0.45569514  0.07911324     0.12600
H761        H  0.75073599  0.55175720  0.92241559     0.12600
C762        C  0.71615522  0.46468638  0.90974633     0.62100
F763        F  0.77599930  0.50985184  0.13098359    -0.23000
F764        F  0.75880462  0.58580368  0.10678397    -0.20400
F765        F  0.81393962  0.55685495  0.08677839    -0.20000
F766        F  0.68068357  0.45177066  0.91830251    -0.20100
F767        F  0.73490334  0.42388276  0.89296516    -0.20400
F768        F  0.71646734  0.50036314  0.87244428    -0.23100
loop_ 
_geom_bond_atom_site_label_1 
_geom_bond_atom_site_label_2 
_geom_bond_distance 
_geom_bond_site_symmetry_2 
_ccdc_geom_bond_type 
O1           Mg3   2.139   1_554  S
O1           Mg9   2.143       .  S
O1           C36   1.237       .  S
C2           O15   1.237       .  S
C2           O39   1.270       .  A
C2           H41   1.081       .  S
Mg3          O32   2.148       .  S
Mg3          O47   2.280       .  S
Mg3          O43   2.250       .  S
Mg3          O14   2.288       .  S
O4          Mg46   2.141       .  S
O4          Mg29   2.141       .  S
O4           C25   1.240       .  S
O5           C36   1.271       .  A
O5          Mg29   2.301       .  S
C6            O8   1.278       .  A
C6           O20   1.278       .  A
C6          C293   1.501       .  S
O7           C35   1.275       .  A
O7           Mg9   2.307   1_556  S
O8          Mg40   2.299       .  S
Mg9          O15   2.117       .  S
Mg9          O23   2.245       .  S
Mg9          O11   2.316       .  S
C10          O48   1.270       .  A
C10          O16   1.269   1_556  A
C10         C357   1.474       .  S
O11          C18   1.276       .  A
H12          C25   1.081       .  S
C13          O27   1.237       .  S
C13          O28   1.271       .  A
C13          H38   1.081       .  S
O14          C37   1.269       .  A
O15         Mg29   2.144       .  S
O16         Mg46   2.275       .  S
C17          O30   1.271       .  A
C17          O22   1.281       .  A
C17         C306   1.496       .  S
C18          O45   1.277       .  A
C18         C338   1.484       .  S
Mg19         O26   2.117       .  S
Mg19         O27   2.142       .  S
Mg19         O20   2.317       .  S
Mg19         O21   2.307       .  S
Mg19         O48   2.253       .  S
O21          C25   1.274   1_556  A
O22         Mg29   2.355       .  S
O23          C42   1.271       .  A
O24          C44   1.281       .  A
O24         Mg40   2.353       .  S
O26         Mg40   2.143       .  S
O26          C37   1.237       .  S
O27         Mg46   2.136   1_556  S
O28         Mg40   2.302       .  S
Mg29         O45   2.290       .  S
O30         Mg46   2.237       .  S
H31          C36   1.081       .  S
O32         Mg40   2.145       .  S
O32          C35   1.241       .  S
H33          C35   1.081       .  S
H34          C37   1.081       .  S
O39         Mg46   2.291       .  S
C42          O47   1.270   1_554  A
C42         C370   1.484       .  S
O43          C44   1.272       .  A
C44         C322   1.488       .  S
O49         Mg51   2.132   1_554  S
O49         Mg57   2.139       .  S
O49          C84   1.237       .  S
C50          O63   1.237       .  S
C50          O87   1.270       .  A
C50          H89   1.081       .  S
Mg51         O80   2.140       .  S
Mg51         O95   2.282       .  S
Mg51         O91   2.242       .  S
Mg51         O62   2.294       .  S
O52         Mg94   2.145       .  S
O52         Mg77   2.142       .  S
O52          C73   1.239       .  S
O53          C84   1.271       .  A
O53         Mg77   2.298       .  S
C54          O56   1.276       .  A
C54          O68   1.277       .  A
C54         C261   1.497       .  S
O55          C83   1.274   1_554  A
O55         Mg57   2.309       .  S
O56         Mg88   2.289       .  S
Mg57         O63   2.113       .  S
Mg57         O71   2.249       .  S
Mg57         O59   2.324       .  S
C58          O96   1.271       .  A
C58          O64   1.270   1_556  A
C58         C373   1.485   1_556  S
O59          C66   1.278       .  A
H60          C73   1.081       .  S
C61          O75   1.237       .  S
C61          O76   1.271       .  A
C61          H86   1.081       .  S
O62          C85   1.271       .  A
O63         Mg77   2.139       .  S
O64         Mg94   2.283       .  S
C65          O78   1.271       .  A
C65          O70   1.279       .  A
C65         C277   1.487       .  S
C66          O93   1.276       .  A
C66         C242   1.504       .  S
Mg67         O74   2.116       .  S
Mg67         O75   2.140       .  S
Mg67         O68   2.315       .  S
Mg67         O69   2.304   1_556  S
Mg67         O96   2.245       .  S
O69          C73   1.273       .  A
O70         Mg77   2.339       .  S
O71          C90   1.270       .  A
O72          C92   1.279       .  A
O72         Mg88   2.339       .  S
O74         Mg88   2.139       .  S
O74          C85   1.238       .  S
O75         Mg94   2.133   1_556  S
O76         Mg88   2.301       .  S
Mg77         O93   2.288       .  S
O78         Mg94   2.237       .  S
H79          C84   1.081       .  S
O80         Mg88   2.143       .  S
O80          C83   1.240       .  S
H81          C83   1.081       .  S
H82          C85   1.081       .  S
O87         Mg94   2.289       .  S
C90          O95   1.271   1_554  A
C90         C354   1.474       .  S
O91          C92   1.271       .  A
C92         C226   1.492       .  S
O97         Mg99   2.133       .  S
O97        Mg105   2.138       .  S
O97         C132   1.237       .  S
C98         O111   1.237       .  S
C98         O135   1.271       .  A
C98         H137   1.081       .  S
Mg99        O128   2.140       .  S
Mg99        O143   2.278       .  S
Mg99        O139   2.243       .  S
Mg99        O110   2.292       .  S
O100       Mg142   2.139       .  S
O100       Mg125   2.133       .  S
O100        C121   1.239       .  S
O101        C132   1.271       .  A
O101       Mg125   2.303       .  S
C102        O104   1.275       .  A
C102        O116   1.278       .  A
C102        C325   1.505       .  S
O103        C131   1.274       .  A
O103       Mg105   2.307       .  S
O104       Mg136   2.281       .  S
Mg105       O111   2.127       .  S
Mg105       O119   2.264       .  S
Mg105       O107   2.325       .  S
C106        O144   1.272       .  A
C106        O112   1.268       .  A
C106        C210   1.495       .  S
O107        C114   1.278       .  A
H108        C121   1.081       .  S
C109        O123   1.237       .  S
C109        O124   1.272       .  A
C109        H134   1.081       .  S
O110        C133   1.270       .  A
O111       Mg125   2.139       .  S
O112       Mg142   2.278       .  S
C113        O126   1.270       .  A
C113        O118   1.280       .  A
C113        C341   1.485       .  S
C114        O141   1.274       .  A
C114        C309   1.492       .  S
Mg115       O122   2.122       .  S
Mg115       O123   2.143       .  S
Mg115       O116   2.321       .  S
Mg115       O117   2.304       .  S
Mg115       O144   2.253       .  S
O117        C121   1.273       .  A
O118       Mg125   2.348       .  S
O119        C138   1.270       .  A
O120        C140   1.281       .  A
O120       Mg136   2.357       .  S
O122       Mg136   2.140       .  S
O122        C133   1.237       .  S
O123       Mg142   2.138       .  S
O124       Mg136   2.303       .  S
Mg125       O141   2.272       .  S
O126       Mg142   2.251       .  S
H127        C132   1.081       .  S
O128       Mg136   2.140       .  S
O128        C131   1.241       .  S
H129        C131   1.081       .  S
H130        C133   1.081       .  S
O135       Mg142   2.295       .  S
C138        O143   1.272       .  A
C138        C194   1.478       .  S
O139        C140   1.271       .  A
C140        C290   1.491       .  S
O145       Mg147   2.131       .  S
O145       Mg153   2.142       .  S
O145        C180   1.237       .  S
C146        O159   1.236       .  S
C146        O183   1.269       .  A
C146        H185   1.081       .  S
Mg147       O176   2.140       .  S
Mg147       O191   2.269       .  S
Mg147       O187   2.245       .  S
Mg147       O158   2.293       .  S
O148       Mg190   2.143       .  S
O148       Mg173   2.133       .  S
O148        C169   1.239       .  S
O149        C180   1.271       .  A
O149       Mg173   2.301       .  S
C150        O152   1.275       .  A
C150        O164   1.276       .  A
C150        C229   1.492       .  S
O151        C179   1.274       .  A
O151       Mg153   2.305       .  S
O152       Mg184   2.283       .  S
Mg153       O159   2.117       .  S
Mg153       O167   2.260       .  S
Mg153       O155   2.305       .  S
C154        O192   1.270       .  A
C154        O160   1.271       .  A
C154        C197   1.479       .  S
O155        C162   1.277       .  A
H156        C169   1.081       .  S
C157        O171   1.237       .  S
C157        O172   1.271       .  A
C157        H182   1.081       .  S
O158        C181   1.270       .  A
O159       Mg173   2.144       .  S
O160       Mg190   2.266       .  S
C161        O174   1.271       .  A
C161        O166   1.280       .  A
C161        C245   1.488       .  S
C162        O189   1.275       .  A
C162        C274   1.494       .  S
Mg163       O170   2.127       .  S
Mg163       O171   2.144       .  S
Mg163       O164   2.300       .  S
Mg163       O165   2.301       .  S
Mg163       O192   2.268       .  S
O165        C169   1.273       .  A
O166       Mg173   2.349       .  S
O167        C186   1.272       .  A
O168        C188   1.280       .  A
O168       Mg184   2.353       .  S
O170       Mg184   2.147       .  S
O170        C181   1.237       .  S
O171       Mg190   2.133       .  S
O172       Mg184   2.302       .  S
Mg173       O189   2.276       .  S
O174       Mg190   2.241       .  S
H175        C180   1.081       .  S
O176       Mg184   2.136       .  S
O176        C179   1.240       .  S
H177        C179   1.081       .  S
H178        C181   1.081       .  S
O183       Mg190   2.287       .  S
C186        O191   1.267       .  A
C186        C213   1.495       .  S
O187        C188   1.271       .  A
C188        C258   1.498       .  S
C193        H200   1.083       .  S
C193        C194   1.404       .  A
C193        C198   1.405   1_545  A
C194        C579   1.419   1_545  A
C195        C196   1.403   1_545  A
C195        C578   1.416   1_455  A
C195        C202   1.520       .  S
C196        H201   1.083       .  S
C196        C197   1.406       .  A
C197        C582   1.417   1_455  A
C198        C581   1.418       .  A
C198        C199   1.520       .  S
C199        F203   1.385   1_565  S
C199        F204   1.383       .  S
C199        F205   1.383       .  S
C202        F206   1.384       .  S
C202        F207   1.383   1_455  S
C202        F208   1.385       .  S
C209        H216   1.081       .  S
C209        C210   1.406       .  A
C209        C214   1.404       .  A
C210        C211   1.426       .  A
C211        C212   1.407       .  A
C211        C218   1.525       .  S
C212        H217   1.081       .  S
C212        C213   1.407       .  A
C213        C214   1.426       .  A
C214        C215   1.525       .  S
C215        F219   1.385       .  S
C215        F220   1.384       .  S
C215        F221   1.383       .  S
C218        F222   1.383       .  S
C218        F223   1.383       .  S
C218        F224   1.385       .  S
C225        H232   1.083       .  S
C225        C230   1.406       .  A
C225        C610   1.407   1_455  A
C226        C227   1.418       .  A
C226        C609   1.408       .  A
C227        C228   1.409       .  A
C227        C234   1.515       .  S
C228        H233   1.083       .  S
C228        C613   1.408       .  A
C229        C230   1.419       .  A
C229        C612   1.409       .  A
C230        C231   1.518       .  S
C231        F235   1.385       .  S
C231        F236   1.384       .  S
C231        F237   1.382       .  S
C234        F238   1.383       .  S
C234        F239   1.381       .  S
C234        F240   1.385       .  S
C241        H248   1.082   1_655  S
C241        C246   1.413   1_655  A
C241        C626   1.414       .  A
C242        C243   1.424       .  A
C242        C625   1.414       .  A
C243        C244   1.407       .  A
C243        C250   1.519       .  S
C244        H249   1.083       .  S
C244        C629   1.404       .  A
C245        C246   1.414       .  A
C245        C628   1.403   1_455  A
C246        C247   1.517       .  S
C247        F251   1.385       .  S
C247        F252   1.381       .  S
C247        F253   1.384       .  S
C250        F254   1.383       .  S
C250        F255   1.383       .  S
C250        F256   1.385       .  S
C257        H264   1.082       .  S
C257        C258   1.408       .  A
C257        C262   1.407       .  A
C258        C259   1.420       .  A
C259        C260   1.413       .  A
C259        C266   1.516       .  S
C260        H265   1.083       .  S
C260        C261   1.409       .  A
C261        C262   1.419       .  A
C262        C263   1.517       .  S
C263        F267   1.385       .  S
C263        F268   1.384       .  S
C263        F269   1.382       .  S
C266        F270   1.384       .  S
C266        F271   1.380       .  S
C266        F272   1.385       .  S
C273        H280   1.083       .  S
C273        C274   1.411       .  A
C273        C278   1.409       .  A
C274        C275   1.421       .  A
C275        C276   1.406       .  A
C275        C282   1.520       .  S
C276        H281   1.083       .  S
C276        C277   1.406       .  A
C277        C278   1.415       .  A
C278        C279   1.517       .  S
C279        F283   1.385       .  S
C279        F284   1.380       .  S
C279        F285   1.383       .  S
C282        F286   1.383       .  S
C282        F287   1.384       .  S
C282        F288   1.385       .  S
C289        H296   1.083       .  S
C289        C294   1.410       .  A
C289        C674   1.408   1_455  A
C290        C291   1.416       .  A
C290        C673   1.406       .  A
C291        C292   1.413       .  A
C291        C298   1.517       .  S
C292        H297   1.083       .  S
C292        C677   1.413       .  A
C293        C294   1.421       .  A
C293        C676   1.412   1_455  A
C294        C295   1.519       .  S
C295        F299   1.385       .  S
C295        F300   1.384       .  S
C295        F301   1.382       .  S
C298        F302   1.384       .  S
C298        F303   1.380       .  S
C298        F304   1.385       .  S
C305        H312   1.083       .  S
C305        C310   1.406       .  A
C305        C690   1.410       .  A
C306        C307   1.420       .  A
C306        C689   1.410   1_455  A
C307        C308   1.413   1_455  A
C307        C314   1.518       .  S
C308        H313   1.083   1_655  S
C308        C693   1.409       .  A
C309        C310   1.417       .  A
C309        C692   1.409       .  A
C310        C311   1.521       .  S
C311        F315   1.385       .  S
C311        F316   1.383       .  S
C311        F317   1.384       .  S
C314        F318   1.383       .  S
C314        F319   1.383       .  S
C314        F320   1.385       .  S
C321        H328   1.083       .  S
C321        C322   1.403       .  A
C321        C326   1.408       .  A
C322        C323   1.414       .  A
C323        C324   1.413       .  A
C323        C330   1.517       .  S
C324        H329   1.082       .  S
C324        C325   1.414       .  A
C325        C326   1.426       .  A
C326        C327   1.521       .  S
C327        F331   1.385       .  S
C327        F332   1.383       .  S
C327        F333   1.383       .  S
C330        F334   1.384       .  S
C330        F335   1.381       .  S
C330        F336   1.385       .  S
C337        H344   1.083       .  S
C337        C338   1.404       .  A
C337        C342   1.409       .  A
C338        C339   1.416       .  A
C339        C340   1.411       .  A
C339        C346   1.518       .  S
C340        H345   1.083       .  S
C340        C341   1.407       .  A
C341        C342   1.417       .  A
C342        C343   1.518       .  S
C343        F347   1.385       .  S
C343        F348   1.383       .  S
C343        F349   1.382       .  S
C346        F350   1.383       .  S
C346        F351   1.382       .  S
C346        F352   1.385       .  S
C353        H360   1.083       .  S
C353        C354   1.404       .  A
C353        C358   1.404   1_565  A
C354        C739   1.416   1_554  A
C355        C356   1.404   1_565  A
C355        C738   1.416   1_456  A
C355        C362   1.520       .  S
C356        H361   1.083       .  S
C356        C357   1.404       .  A
C357        C742   1.416   1_456  A
C358        C741   1.416   1_554  A
C358        C359   1.520       .  S
C359        F363   1.385       .  S
C359        F364   1.384   1_554  S
C359        F365   1.382       .  S
C362        F366   1.382       .  S
C362        F367   1.384       .  S
C362        F368   1.384       .  S
C369        H376   1.083       .  S
C369        C370   1.405       .  A
C369        C374   1.404       .  A
C370        C371   1.422   1_554  A
C371        C372   1.403       .  A
C371        C378   1.523       .  S
C372        H377   1.083       .  S
C372        C373   1.405   1_556  A
C373        C374   1.423       .  A
C374        C375   1.523       .  S
C375        F379   1.385       .  S
C375        F380   1.383       .  S
C375        F381   1.383       .  S
C378        F382   1.383       .  S
C378        F383   1.383       .  S
C378        F384   1.385       .  S
O385       Mg387   2.139   1_554  S
O385       Mg393   2.143       .  S
O385        C420   1.237       .  S
C386        O399   1.237       .  S
C386        O423   1.270       .  A
C386        H425   1.081       .  S
Mg387       O416   2.145       .  S
Mg387       O431   2.279       .  S
Mg387       O427   2.251       .  S
Mg387       O398   2.289       .  S
O388       Mg430   2.140       .  S
O388       Mg413   2.138       .  S
O388        C409   1.240       .  S
O389        C420   1.271       .  A
O389       Mg413   2.302       .  S
C390        O392   1.276       .  A
C390        O404   1.276       .  A
C390        C677   1.499       .  S
O391        C419   1.274       .  A
O391       Mg393   2.304   1_556  S
O392       Mg424   2.288       .  S
Mg393       O399   2.119       .  S
Mg393       O407   2.245       .  S
Mg393       O395   2.311       .  S
C394        O432   1.270       .  A
C394        O400   1.270   1_556  A
C394        C741   1.473       .  S
O395        C402   1.275       .  A
H396        C409   1.081       .  S
C397        O411   1.237       .  S
C397        O412   1.272       .  A
C397        H422   1.081       .  S
O398        C421   1.269       .  A
O399       Mg413   2.143       .  S
O400       Mg430   2.279       .  S
C401        O414   1.271       .  A
C401        O406   1.281       .  A
C401        C690   1.497       .  S
C402        O429   1.277       .  A
C402        C722   1.482       .  S
Mg403       O410   2.119       .  S
Mg403       O411   2.142       .  S
Mg403       O404   2.309       .  S
Mg403       O405   2.305       .  S
Mg403       O432   2.250       .  S
O405        C409   1.274   1_556  A
O406       Mg413   2.355       .  S
O407        C426   1.271       .  A
O408        C428   1.281       .  A
O408       Mg424   2.356       .  S
O410       Mg424   2.142       .  S
O410        C421   1.237       .  S
O411       Mg430   2.136   1_556  S
O412       Mg424   2.303       .  S
Mg413       O429   2.288       .  S
O414       Mg430   2.240       .  S
H415        C420   1.081       .  S
O416       Mg424   2.138       .  S
O416        C419   1.240       .  S
H417        C419   1.081       .  S
H418        C421   1.081       .  S
O423       Mg430   2.291       .  S
C426        O431   1.270   1_554  A
C426        C754   1.483       .  S
O427        C428   1.272       .  A
C428        C706   1.490       .  S
O433       Mg435   2.131   1_554  S
O433       Mg441   2.139       .  S
O433        C468   1.237       .  S
C434        O447   1.237       .  S
C434        O471   1.270       .  A
C434        H473   1.081       .  S
Mg435       O464   2.141       .  S
Mg435       O479   2.282       .  S
Mg435       O475   2.240       .  S
Mg435       O446   2.294       .  S
O436       Mg478   2.144       .  S
O436       Mg461   2.138       .  S
O436        C457   1.239       .  S
O437        C468   1.271       .  A
O437       Mg461   2.299       .  S
C438        O440   1.276       .  A
C438        O452   1.277       .  A
C438        C645   1.496       .  S
O439        C467   1.274   1_554  A
O439       Mg441   2.309       .  S
O440       Mg472   2.289       .  S
Mg441       O447   2.114       .  S
Mg441       O455   2.250       .  S
Mg441       O443   2.322       .  S
C442        O480   1.271       .  A
C442        O448   1.270   1_556  A
C442        C757   1.484       .  S
O443        C450   1.278       .  A
H444        C457   1.081       .  S
C445        O459   1.237       .  S
C445        O460   1.271       .  A
C445        H470   1.081       .  S
O446        C469   1.271       .  A
O447       Mg461   2.139       .  S
O448       Mg478   2.282       .  S
C449        O462   1.271       .  A
C449        O454   1.279       .  A
C449        C661   1.486       .  S
C450        O477   1.275       .  A
C450        C626   1.504       .  S
Mg451       O458   2.118       .  S
Mg451       O459   2.140       .  S
Mg451       O452   2.314       .  S
Mg451       O453   2.302   1_556  S
Mg451       O480   2.248       .  S
O453        C457   1.273       .  A
O454       Mg461   2.338       .  S
O455        C474   1.270       .  A
O456        C476   1.279       .  A
O456       Mg472   2.341       .  S
O458       Mg472   2.141       .  S
O458        C469   1.238       .  S
O459       Mg478   2.131   1_556  S
O460       Mg472   2.300       .  S
Mg461       O477   2.281       .  S
O462       Mg478   2.238       .  S
H463        C468   1.081       .  S
O464       Mg472   2.144       .  S
O464        C467   1.240       .  S
H465        C467   1.081       .  S
H466        C469   1.081       .  S
O471       Mg478   2.289       .  S
C474        O479   1.270   1_554  A
C474        C738   1.474       .  S
O475        C476   1.271       .  A
C476        C610   1.491       .  S
O481       Mg483   2.135       .  S
O481       Mg489   2.137       .  S
O481        C516   1.237       .  S
C482        O495   1.237       .  S
C482        O519   1.271       .  A
C482        H521   1.081       .  S
Mg483       O512   2.140       .  S
Mg483       O527   2.281       .  S
Mg483       O523   2.251       .  S
Mg483       O494   2.292       .  S
O484       Mg526   2.140       .  S
O484       Mg509   2.131       .  S
O484        C505   1.239       .  S
O485        C516   1.271       .  A
O485       Mg509   2.303       .  S
C486        O488   1.275       .  A
C486        O500   1.278       .  A
C486        C709   1.504       .  S
O487        C515   1.275       .  A
O487       Mg489   2.307       .  S
O488       Mg520   2.282       .  S
Mg489       O495   2.128       .  S
Mg489       O503   2.264       .  S
Mg489       O491   2.325       .  S
C490        O528   1.273       .  A
C490        O496   1.267       .  A
C490        C594   1.495       .  S
O491        C498   1.279       .  A
H492        C505   1.081       .  S
C493        O507   1.238       .  S
C493        O508   1.272       .  A
C493        H518   1.081       .  S
O494        C517   1.270       .  A
O495       Mg509   2.140       .  S
O496       Mg526   2.275       .  S
C497        O510   1.270       .  A
C497        O502   1.279       .  A
C497        C725   1.485       .  S
C498        O525   1.274       .  A
C498        C693   1.491       .  S
Mg499       O506   2.125       .  S
Mg499       O507   2.143       .  S
Mg499       O500   2.322       .  S
Mg499       O501   2.303       .  S
Mg499       O528   2.257       .  S
O501        C505   1.273       .  A
O502       Mg509   2.343       .  S
O503        C522   1.271       .  A
O504        C524   1.282       .  A
O504       Mg520   2.365       .  S
O506       Mg520   2.139       .  S
O506        C517   1.237       .  S
O507       Mg526   2.140       .  S
O508       Mg520   2.306       .  S
Mg509       O525   2.269       .  S
O510       Mg526   2.252       .  S
H511        C516   1.081       .  S
O512       Mg520   2.140       .  S
O512        C515   1.241       .  S
H513        C515   1.081       .  S
H514        C517   1.081       .  S
O519       Mg526   2.295       .  S
C522        O527   1.272       .  A
C522        C578   1.480       .  S
O523        C524   1.272       .  A
C524        C674   1.497       .  S
O529       Mg531   2.132       .  S
O529       Mg537   2.145       .  S
O529        C564   1.237       .  S
C530        O543   1.236       .  S
C530        O567   1.269       .  A
C530        H569   1.081       .  S
Mg531       O560   2.141       .  S
Mg531       O575   2.264       .  S
Mg531       O571   2.248       .  S
Mg531       O542   2.290       .  S
O532       Mg574   2.143       .  S
O532       Mg557   2.137       .  S
O532        C553   1.240       .  S
O533        C564   1.271       .  A
O533       Mg557   2.301       .  S
C534        O536   1.275       .  A
C534        O548   1.277       .  A
C534        C613   1.491       .  S
O535        C563   1.273       .  A
O535       Mg537   2.301       .  S
O536       Mg568   2.279       .  S
Mg537       O543   2.121       .  S
Mg537       O551   2.267       .  S
Mg537       O539   2.304       .  S
C538        O576   1.270       .  A
C538        O544   1.272       .  A
C538        C581   1.477       .  S
O539        C546   1.277       .  A
H540        C553   1.081       .  S
C541        O555   1.237       .  S
C541        O556   1.271       .  A
C541        H566   1.081       .  S
O542        C565   1.270       .  A
O543       Mg557   2.145       .  S
O544       Mg574   2.275       .  S
C545        O558   1.272       .  A
C545        O550   1.281       .  A
C545        C629   1.491       .  S
C546        O573   1.275       .  A
C546        C658   1.495       .  S
Mg547       O554   2.120       .  S
Mg547       O555   2.143       .  S
Mg547       O548   2.305       .  S
Mg547       O549   2.304       .  S
Mg547       O576   2.261       .  S
O549        C553   1.274       .  A
O550       Mg557   2.352       .  S
O551        C570   1.273       .  A
O552        C572   1.279       .  A
O552       Mg568   2.346       .  S
O554       Mg568   2.144       .  S
O554        C565   1.237       .  S
O555       Mg574   2.136       .  S
O556       Mg568   2.303       .  S
Mg557       O573   2.280       .  S
O558       Mg574   2.248       .  S
H559        C564   1.081       .  S
O560       Mg568   2.132       .  S
O560        C563   1.240       .  S
H561        C563   1.081       .  S
H562        C565   1.081       .  S
O567       Mg574   2.290       .  S
C570        O575   1.266       .  A
C570        C597   1.495       .  S
O571        C572   1.272       .  A
C572        C642   1.498       .  S
C577        H584   1.083       .  S
C577        C578   1.407       .  A
C577        C582   1.406   1_545  A
C579        C580   1.404       .  A
C579        C586   1.520       .  S
C580        H585   1.083       .  S
C580        C581   1.403       .  A
C582        C583   1.520       .  S
C583        F587   1.385       .  S
C583        F588   1.383   1_655  S
C583        F589   1.384       .  S
C586        F590   1.382   1_565  S
C586        F591   1.383   1_565  S
C586        F592   1.385       .  S
C593        H600   1.081       .  S
C593        C594   1.406       .  A
C593        C598   1.404       .  A
C594        C595   1.427       .  A
C595        C596   1.407       .  A
C595        C602   1.525       .  S
C596        H601   1.081       .  S
C596        C597   1.407       .  A
C597        C598   1.427       .  A
C598        C599   1.526       .  S
C599        F603   1.385       .  S
C599        F604   1.384       .  S
C599        F605   1.383       .  S
C602        F606   1.383       .  S
C602        F607   1.384       .  S
C602        F608   1.385       .  S
C609        H616   1.083       .  S
C609        C614   1.406       .  A
C610        C611   1.417       .  A
C611        C612   1.409   1_655  A
C611        C618   1.515       .  S
C612        H617   1.083   1_455  S
C613        C614   1.418       .  A
C614        C615   1.517       .  S
C615        F619   1.385       .  S
C615        F620   1.383       .  S
C615        F621   1.382       .  S
C618        F622   1.383       .  S
C618        F623   1.380       .  S
C618        F624   1.385       .  S
C625        H632   1.082       .  S
C625        C630   1.414       .  A
C626        C627   1.425       .  A
C627        C628   1.406       .  A
C627        C634   1.520       .  S
C628        H633   1.083       .  S
C629        C630   1.415       .  A
C630        C631   1.517       .  S
C631        F635   1.385       .  S
C631        F636   1.381       .  S
C631        F637   1.384       .  S
C634        F638   1.383       .  S
C634        F639   1.383       .  S
C634        F640   1.385       .  S
C641        H648   1.082       .  S
C641        C642   1.408       .  A
C641        C646   1.407       .  A
C642        C643   1.420       .  A
C643        C644   1.412       .  A
C643        C650   1.516       .  S
C644        H649   1.083       .  S
C644        C645   1.409       .  A
C645        C646   1.419       .  A
C646        C647   1.517       .  S
C647        F651   1.385       .  S
C647        F652   1.384       .  S
C647        F653   1.382       .  S
C650        F654   1.384       .  S
C650        F655   1.380       .  S
C650        F656   1.385       .  S
C657        H664   1.082       .  S
C657        C658   1.411       .  A
C657        C662   1.409       .  A
C658        C659   1.422       .  A
C659        C660   1.406       .  A
C659        C666   1.520       .  S
C660        H665   1.083       .  S
C660        C661   1.405       .  A
C661        C662   1.414       .  A
C662        C663   1.517       .  S
C663        F667   1.385       .  S
C663        F668   1.380       .  S
C663        F669   1.383       .  S
C666        F670   1.383       .  S
C666        F671   1.383       .  S
C666        F672   1.385       .  S
C673        H680   1.083       .  S
C673        C678   1.407       .  A
C674        C675   1.417       .  A
C675        C676   1.414       .  A
C675        C682   1.517       .  S
C676        H681   1.083       .  S
C677        C678   1.421       .  A
C678        C679   1.519       .  S
C679        F683   1.385       .  S
C679        F684   1.384       .  S
C679        F685   1.382       .  S
C682        F686   1.384       .  S
C682        F687   1.380       .  S
C682        F688   1.385       .  S
C689        H696   1.083       .  S
C689        C694   1.406       .  A
C690        C691   1.420       .  A
C691        C692   1.413       .  A
C691        C698   1.519       .  S
C692        H697   1.083       .  S
C693        C694   1.418       .  A
C694        C695   1.521       .  S
C695        F699   1.385       .  S
C695        F700   1.383       .  S
C695        F701   1.384       .  S
C698        F702   1.383       .  S
C698        F703   1.384       .  S
C698        F704   1.385       .  S
C705        H712   1.083       .  S
C705        C706   1.404       .  A
C705        C710   1.408       .  A
C706        C707   1.415       .  A
C707        C708   1.413       .  A
C707        C714   1.517       .  S
C708        H713   1.082       .  S
C708        C709   1.414       .  A
C709        C710   1.425       .  A
C710        C711   1.520       .  S
C711        F715   1.385       .  S
C711        F716   1.383       .  S
C711        F717   1.383       .  S
C714        F718   1.384       .  S
C714        F719   1.381       .  S
C714        F720   1.385       .  S
C721        H728   1.083       .  S
C721        C722   1.403       .  A
C721        C726   1.409       .  A
C722        C723   1.416       .  A
C723        C724   1.411       .  A
C723        C730   1.518       .  S
C724        H729   1.083       .  S
C724        C725   1.407       .  A
C725        C726   1.418       .  A
C726        C727   1.519       .  S
C727        F731   1.384       .  S
C727        F732   1.383       .  S
C727        F733   1.382       .  S
C730        F734   1.383       .  S
C730        F735   1.382       .  S
C730        F736   1.385       .  S
C737        H744   1.083       .  S
C737        C738   1.404       .  A
C737        C742   1.404   1_565  A
C739        C740   1.404   1_565  A
C739        C746   1.520       .  S
C740        H745   1.083       .  S
C740        C741   1.404       .  A
C742        C743   1.520       .  S
C743        F747   1.385       .  S
C743        F748   1.384       .  S
C743        F749   1.383       .  S
C746        F750   1.383       .  S
C746        F751   1.384       .  S
C746        F752   1.384       .  S
C753        H760   1.083       .  S
C753        C754   1.404       .  A
C753        C758   1.404       .  A
C754        C755   1.422   1_554  A
C755        C756   1.403       .  A
C755        C762   1.523       .  S
C756        H761   1.083       .  S
C756        C757   1.404       .  A
C757        C758   1.423   1_556  A
C758        C759   1.523       .  S
C759        F763   1.385       .  S
C759        F764   1.383       .  S
C759        F765   1.383       .  S
C762        F766   1.383       .  S
C762        F767   1.383       .  S
C762        F768   1.385       .  S
