geometry optimzed in LAMMPS
_audit_creation_date              2020-11-30 
_audit_creation_method            'lammps2cif' 
_symmetry_space_group_name_H-M    'P1' 
_symmetry_Int_Tables_number       1 
_symmetry_cell_setting            triclinic 
loop_ 
_symmetry_equiv_pos_as_xyz 
  x,y,z 
_cell_length_a                    35.12217318 
_cell_length_b                    35.191515405067165 
_cell_length_c                    47.09577869028591 
_cell_angle_alpha                 89.94329814369802 
_cell_angle_beta                  90.2541761597851 
_cell_angle_gamma                 89.76481711454095 
loop_ 
_atom_site_label 
_atom_site_type_symbol 
_atom_site_fract_x 
_atom_site_fract_y 
_atom_site_fract_z 
_atom_site_charge 
C1          C  0.77975111  0.22274076  0.00138812     0.04000
C2          C  0.79539784  0.20582972  0.47696047    -0.12200
C3          C  0.82078509  0.17487215  0.47934585     0.01500
C4          C  0.82980344  0.16085840  0.00651829    -0.10700
C5          C  0.81537070  0.17835794  0.03092598     0.04000
C6          C  0.79029409  0.20920469  0.02834533    -0.10100
H7          H  0.78785116  0.21685274  0.45620545     0.09600
H8          H  0.84872748  0.13663548  0.00873638     0.07100
H9          H  0.77863646  0.22235183  0.04726249     0.06900
C10         C  0.21508283  0.77632900  0.50071356     0.04000
C11         C  0.20007180  0.79133091  0.02588341    -0.12200
C12         C  0.17146049  0.81920697  0.02473225     0.01500
C13         C  0.15783960  0.83187593  0.49845197    -0.10700
C14         C  0.17284595  0.81725855  0.47320181     0.04000
C15         C  0.20142001  0.78936838  0.47437316    -0.10100
H16         H  0.21083100  0.78164607  0.04625636     0.09600
H17         H  0.13596352  0.85368265  0.49759421     0.07100
H18         H  0.21332359  0.77818152  0.45487354     0.06900
Zn19       Zn  0.44462756  0.49361813  0.00041316     1.49700
Zn20       Zn  0.52120783  0.48068302  0.46455789     1.49400
Zn21       Zn  0.50815715  0.55912127  0.99817983     1.49100
Zn22       Zn  0.52510171  0.48143002  0.03189099     1.49500
O23         O  0.49968939  0.50382711  0.99874141    -1.83300
O24         O  0.42693540  0.46378506  0.46605057    -0.73900
O25         O  0.54469065  0.52077262  0.43924046    -0.73700
O26         O  0.45818430  0.58774371  0.99889012    -0.73300
O27         O  0.48019378  0.45531382  0.44171187    -0.73900
O28         O  0.41434117  0.54233598  0.00005937    -0.73500
O29         O  0.53623304  0.57509175  0.46268596    -0.74100
O30         O  0.54955186  0.52204978  0.05562857    -0.73500
O31         O  0.56131993  0.44082160  0.47391696    -0.74300
O32         O  0.53780337  0.57615221  0.03278357    -0.73700
O33         O  0.56543838  0.44289638  0.02076080    -0.74100
O34         O  0.48719685  0.45567923  0.05750756    -0.74000
O35         O  0.43099562  0.46534925  0.03657304    -0.73800
C36         C  0.44438774  0.45118310  0.44432042     0.78000
C37         C  0.54837944  0.55667342  0.44126297     0.78500
C38         C  0.42355497  0.57724645  0.99955766     0.77400
C39         C  0.55179920  0.55806999  0.05384909     0.77800
C40         C  0.57619288  0.42922629  0.99704182     0.78900
C41         C  0.45113076  0.45233360  0.05698496     0.78000
C42         C  0.27806404  0.28322309  0.24838921     0.04000
C43         C  0.28929536  0.29790487  0.27483271    -0.12200
C44         C  0.31708316  0.32626330  0.27639749     0.01500
C45         C  0.33365227  0.34008350  0.25149315    -0.10700
C46         C  0.32343260  0.32533254  0.22487669     0.04000
C47         C  0.29535423  0.29683958  0.22343307    -0.10100
H48         H  0.27644703  0.28729066  0.29412540     0.09600
H49         H  0.35488336  0.36230298  0.25289104     0.07100
H50         H  0.28716678  0.28513892  0.20305228     0.06900
C51         C  0.72673767  0.71768503  0.24855262     0.04000
C52         C  0.71223166  0.70456219  0.22254672    -0.12200
C53         C  0.68201583  0.67871069  0.22206905     0.01500
C54         C  0.66653210  0.66571470  0.24755118    -0.10700
C55         C  0.68122482  0.67762769  0.27375510     0.04000
C56         C  0.71134986  0.70397807  0.27418363    -0.10100
H57         H  0.72365750  0.71523848  0.20278992     0.09600
H58         H  0.64271537  0.64613071  0.24695102     0.07100
H59         H  0.72257496  0.71394555  0.29427509     0.06900
Zn60       Zn  0.01974241  0.02660902  0.21710087     1.49700
Zn61       Zn  0.00988389  0.94698982  0.24900072     1.49400
Zn62       Zn  0.02422076  0.02472923  0.28423222     1.49100
Zn63       Zn  0.94409477  0.00935821  0.25370023     1.49500
O64         O  0.99944856  0.00186629  0.25107812    -1.83300
O65         O  0.04694320  0.98899515  0.19214805    -0.73900
O66         O  0.04130659  0.93036166  0.28277925    -0.73700
O67         O  0.06491683  0.06291703  0.27295252    -0.73300
O68         O  0.03781137  0.93342827  0.21288267    -0.73900
O69         O  0.05780712  0.06808323  0.22637166    -0.73500
O70         O  0.04853292  0.98352766  0.30791854    -0.74100
O71         O  0.92984285  0.03744017  0.28945090    -0.73500
O72         O  0.96133950  0.91600403  0.24970817    -0.74300
O73         O  0.98560475  0.05123987  0.30949231    -0.73700
O74         O  0.91560602  0.95946783  0.25385262    -0.74100
O75         O  0.92484527  0.03890693  0.21989539    -0.74000
O76         O  0.97677275  0.04872394  0.19393362    -0.73800
C77         C  0.05116011  0.95307455  0.19250920     0.78000
C78         C  0.05329050  0.94788659  0.30469634     0.78500
C79         C  0.07408837  0.07817021  0.24937799     0.77400
C80         C  0.94932680  0.05258488  0.30925426     0.77800
C81         C  0.92632989  0.92499903  0.25183566     0.78900
C82         C  0.94098389  0.05166228  0.19770384     0.78000
C83         C  0.77331410  0.81509175  0.25287159    -0.04600
C84         C  0.81195489  0.80603335  0.24818651     0.09500
C85         C  0.82254974  0.76797065  0.24279711    -0.02000
C86         C  0.79482764  0.73895934  0.24304615    -0.00300
C87         C  0.75633559  0.74789020  0.24867807    -0.03900
C88         C  0.74559784  0.78616153  0.25300487     0.03100
C89         C  0.84153019  0.83665405  0.24911300     0.10000
C90         C  0.86196957  0.75887182  0.23667032     0.35900
C91         C  0.70574085  0.79591694  0.25649920     0.39300
C92         C  0.85758512  0.84779133  0.27535272    -0.04300
C93         C  0.88578784  0.87628362  0.27628259     0.02900
C94         C  0.89719170  0.89464147  0.25106989    -0.03900
C95         C  0.88068765  0.88396797  0.22490071    -0.00100
C96         C  0.85336232  0.85467088  0.22386672    -0.02600
C97         C  0.84490673  0.82990092  0.30138436     0.36600
C98         C  0.89187707  0.90328356  0.19903701     0.40200
C99         C  0.90334289  0.88641867  0.30313213     0.39400
C100        C  0.83747834  0.84289915  0.19682750     0.36300
C101        C  0.76204496  0.85436999  0.25702767     0.37000
C102        C  0.80583056  0.69996951  0.23730808     0.40200
N103        N  0.91750204  0.89412607  0.32458790    -0.37900
N104        N  0.83452850  0.81568375  0.32210659    -0.39400
N105        N  0.90082572  0.91893185  0.17851239    -0.37200
N106        N  0.82496338  0.83332632  0.17523144    -0.39600
N107        N  0.89343129  0.75184511  0.23160290    -0.39400
N108        N  0.81463133  0.66888669  0.23260749    -0.37000
N109        N  0.67389122  0.80371921  0.25895602    -0.38000
N110        N  0.75306230  0.88574355  0.26022435    -0.39700
C111        C  0.18238799  0.23361862  0.23856425    -0.04600
C112        C  0.19134747  0.19612600  0.24706158     0.09500
C113        C  0.22891778  0.18722140  0.25563868    -0.02000
C114        C  0.25737915  0.21547830  0.25547457    -0.00300
C115        C  0.24838426  0.25305751  0.24716634    -0.03900
C116        C  0.21064986  0.26210609  0.23902090     0.03100
C117        C  0.16104647  0.16607597  0.24747542     0.10000
C118        C  0.23809747  0.14900838  0.26503120     0.35900
C119        C  0.20050141  0.30107218  0.23230870     0.39300
C120        C  0.15724974  0.14056126  0.22459094    -0.04300
C121        C  0.12940500  0.11162141  0.22526618     0.02900
C122        C  0.10423103  0.10842574  0.24870988    -0.03900
C123        C  0.10801670  0.13457648  0.27149739    -0.00100
C124        C  0.13641889  0.16292756  0.27091164    -0.02600
C125        C  0.18210099  0.14433376  0.20022566     0.36600
C126        C  0.08210381  0.13327169  0.29538370     0.40200
C127        C  0.12786847  0.08445287  0.20213057     0.39400
C128        C  0.14035732  0.18909871  0.29451404     0.36300
C129        C  0.14394020  0.24283299  0.22949241     0.37000
C130        C  0.29599392  0.20593001  0.26395291     0.40200
N131        N  0.12686960  0.06283336  0.18363568    -0.37900
N132        N  0.20192472  0.14759058  0.18081823    -0.39400
N133        N  0.06150462  0.13221966  0.31447929    -0.37200
N134        N  0.14351055  0.20999868  0.31332453    -0.39600
N135        N  0.24534505  0.11852224  0.27260156    -0.39400
N136        N  0.32681618  0.19833084  0.27070489    -0.37000
N137        N  0.19213196  0.33220809  0.22729744    -0.38000
N138        N  0.11324407  0.25006723  0.22220544    -0.39700
C139        C  0.41409751  0.37452057  0.10549442    -0.04600
C140        C  0.39831319  0.39598195  0.12793410     0.09500
C141        C  0.39997573  0.43609520  0.12693739    -0.02000
C142        C  0.41650034  0.45455988  0.10340581    -0.00300
C143        C  0.43224924  0.43302321  0.08104102    -0.03900
C144        C  0.43115574  0.39300340  0.08219450     0.03100
C145        C  0.37906758  0.37637908  0.15228829     0.10000
C146        C  0.38503984  0.45831372  0.15033260     0.35900
C147        C  0.44717206  0.37091659  0.05913013     0.39300
C148        C  0.40079537  0.35792048  0.17351942    -0.04300
C149        C  0.38254135  0.33940309  0.19631882     0.02900
C150        C  0.34233216  0.34058566  0.19880918    -0.03900
C151        C  0.32068608  0.35910284  0.17745746    -0.00100
C152        C  0.33895441  0.37642974  0.15415639    -0.02600
C153        C  0.44204679  0.35890681  0.17226139     0.36600
C154        C  0.27964873  0.36181107  0.17992402     0.40200
C155        C  0.40523898  0.31874404  0.21707259     0.39400
C156        C  0.31647611  0.39494387  0.13219731     0.36300
C157        C  0.41264090  0.33337457  0.10635870     0.37000
C158        C  0.41739307  0.49575038  0.10220893     0.40200
N159        N  0.42334568  0.30221697  0.23359178    -0.37900
N160        N  0.47494689  0.35991096  0.17127009    -0.39400
N161        N  0.24688423  0.36417320  0.18170910    -0.37200
N162        N  0.29866785  0.40986880  0.11468557    -0.39600
N163        N  0.37314175  0.47597793  0.16903862    -0.39400
N164        N  0.41799202  0.52860772  0.10121456    -0.37000
N165        N  0.45991740  0.35346774  0.04062462    -0.38000
N166        N  0.41162626  0.30052804  0.10713782    -0.39700
C167        C  0.41361389  0.41920510  0.37022640    -0.04600
C168        C  0.38236972  0.39570652  0.37641779     0.09500
C169        C  0.37091388  0.39060937  0.40478857    -0.02000
C170        C  0.39106751  0.40846723  0.42707709    -0.00300
C171        C  0.42264991  0.43212118  0.42102025    -0.03900
C172        C  0.43340860  0.43770666  0.39228213     0.03100
C173        C  0.36217850  0.37574603  0.35278676     0.10000
C174        C  0.33848759  0.36662981  0.41094725     0.35900
C175        C  0.46419688  0.46331573  0.38501823     0.39300
C176        C  0.37478616  0.33953861  0.34396314    -0.04300
C177        C  0.35880047  0.32249720  0.31962330     0.02900
C178        C  0.32994208  0.34150324  0.30416068    -0.03900
C179        C  0.31594803  0.37680387  0.31385738    -0.00100
C180        C  0.33226498  0.39406323  0.33800443    -0.02600
C181        C  0.40507473  0.32045753  0.35949048     0.36600
C182        C  0.28503458  0.39545691  0.29873795     0.40200
C183        C  0.37288784  0.28597472  0.30993857     0.39400
C184        C  0.31917490  0.43117895  0.34718783     0.36300
C185        C  0.42551602  0.42413978  0.34097264     0.37000
C186        C  0.37987232  0.40128072  0.45620201     0.40200
N187        N  0.38419195  0.25683913  0.30224409    -0.37900
N188        N  0.42924255  0.30535171  0.37195943    -0.39400
N189        N  0.26021303  0.41013453  0.28670576    -0.37200
N190        N  0.30888338  0.46085989  0.35450802    -0.39600
N191        N  0.31256697  0.34751047  0.41574808    -0.39400
N192        N  0.37086795  0.39545973  0.47941013    -0.37000
N193        N  0.48877673  0.48362920  0.37914226    -0.38000
N194        N  0.43503568  0.42794349  0.31765253    -0.39700
C195        C  0.61501014  0.62738134  0.09454904    -0.04600
C196        C  0.60648636  0.61764276  0.12285040     0.09500
C197        C  0.57913325  0.58946393  0.12850681    -0.02000
C198        C  0.56073182  0.57064871  0.10594008    -0.00300
C199        C  0.57018781  0.57931931  0.07745565    -0.03900
C200        C  0.59721226  0.60806668  0.07187160     0.03100
C201        C  0.62751559  0.63581008  0.14686227     0.10000
C202        C  0.57031893  0.57948515  0.15765181     0.35900
C203        C  0.60804838  0.61670025  0.04290161     0.39300
C204        C  0.61091860  0.66616508  0.16200895    -0.04300
C205        C  0.62956008  0.68116520  0.18603625     0.02900
C206        C  0.66491675  0.66596479  0.19491656    -0.03900
C207        C  0.68212432  0.63645712  0.17922147    -0.00100
C208        C  0.66344950  0.62143246  0.15519939    -0.02600
C209        C  0.57445226  0.68157859  0.15304094     0.36600
C210        C  0.71836442  0.62068265  0.18839149     0.40200
C211        C  0.61220465  0.71190328  0.20197701     0.39400
C212        C  0.68069277  0.59057141  0.13934296     0.36300
C213        C  0.64246667  0.65708305  0.08890481     0.37000
C214        C  0.53142927  0.54292147  0.11217340     0.40200
N215        N  0.59857499  0.73637990  0.21485744    -0.37900
N216        N  0.54536178  0.69393015  0.14589444    -0.39400
N217        N  0.74725667  0.60804235  0.19570999    -0.37200
N218        N  0.69429564  0.56601062  0.12653723    -0.39600
N219        N  0.56332290  0.57147990  0.18088552    -0.39400
N220        N  0.50809365  0.52081925  0.11719258    -0.37000
N221        N  0.61687576  0.62355356  0.01981656    -0.38000
N222        N  0.66435235  0.68086458  0.08457904    -0.39700
C223        C  0.62514269  0.60406008  0.39714919    -0.04600
C224        C  0.60453305  0.61449129  0.37251606     0.09500
C225        C  0.56508249  0.60713382  0.37094936    -0.02000
C226        C  0.54655108  0.58865990  0.39362960    -0.00300
C227        C  0.56738871  0.57752367  0.41798616    -0.03900
C228        C  0.60660856  0.58567282  0.41983403     0.03100
C229        C  0.62494378  0.63119845  0.34758331     0.10000
C230        C  0.54376586  0.61811006  0.34578708     0.35900
C231        C  0.62798480  0.57450006  0.44492560     0.39300
C232        C  0.64376644  0.60701665  0.32830409    -0.04300
C233        C  0.66361541  0.62234277  0.30501325     0.02900
C234        C  0.66414553  0.66212565  0.30036746    -0.03900
C235        C  0.64511168  0.68631929  0.31970795    -0.00100
C236        C  0.62562738  0.67086786  0.34323158    -0.02600
C237        C  0.64169966  0.56615000  0.33206150     0.36600
C238        C  0.64412946  0.72699228  0.31486012     0.40200
C239        C  0.68343608  0.59699811  0.28572951     0.39400
C240        C  0.60533739  0.69565679  0.36259492     0.36300
C241        C  0.66559187  0.61183268  0.39890875     0.37000
C242        C  0.50604921  0.58102030  0.39192036     0.40200
N243        N  0.69906708  0.57681142  0.27024180    -0.37900
N244        N  0.63972728  0.53357259  0.33503541    -0.39400
N245        N  0.64318314  0.75949632  0.31119066    -0.37200
N246        N  0.58890624  0.71538447  0.37794823    -0.39600
N247        N  0.52682120  0.62697349  0.32569961    -0.39400
N248        N  0.47371922  0.57499544  0.39058782    -0.37000
N249        N  0.64495162  0.56551392  0.46497086    -0.38000
N250        N  0.69788441  0.61802315  0.40021791    -0.39700
C251        C  0.16255765  0.88252915  0.08969375    -0.04600
C252        C  0.12494879  0.87472966  0.09826890     0.09500
C253        C  0.10323391  0.84747840  0.08345678    -0.02000
C254        C  0.11888078  0.82842582  0.05990902    -0.00300
C255        C  0.15628333  0.83665541  0.05101990    -0.03900
C256        C  0.17818525  0.86359202  0.06605569     0.03100
C257        C  0.10774599  0.89567463  0.12267034     0.10000
C258        C  0.06456167  0.83953197  0.09228442     0.35900
C259        C  0.21633807  0.87267439  0.05659364     0.39300
C260        C  0.08981195  0.93100309  0.11815338    -0.04300
C261        C  0.07209717  0.95018590  0.14087375     0.02900
C262        C  0.07161904  0.93374098  0.16852796    -0.03900
C263        C  0.09054383  0.89836442  0.17287232    -0.00100
C264        C  0.10854747  0.87966671  0.15004754    -0.02600
C265        C  0.08924323  0.94737831  0.08983581     0.36600
C266        C  0.09248642  0.88111925  0.20084447     0.40200
C267        C  0.05402990  0.98659072  0.13518169     0.39400
C268        C  0.12809184  0.84374712  0.15462588     0.36300
C269        C  0.18488877  0.91043341  0.10501011     0.37000
C270        C  0.09651338  0.80037930  0.04473984     0.40200
N271        N  0.04013371  0.01580336  0.13041851    -0.37900
N272        N  0.08879920  0.96036579  0.06725009    -0.39400
N273        N  0.09401252  0.86708047  0.22305718    -0.37200
N274        N  0.14378728  0.81514439  0.15816385    -0.39600
N275        N  0.03371284  0.83331787  0.09940349    -0.39400
N276        N  0.07905093  0.77759939  0.53295049    -0.37000
N277        N  0.24673300  0.87984590  0.04891985    -0.38000
N278        N  0.20265631  0.93273377  0.11724803    -0.39700
C279        C  0.07224042  0.90353351  0.37681846    -0.04600
C280        C  0.10719546  0.88473543  0.37211310     0.09500
C281        C  0.12438867  0.88633178  0.34512850    -0.02000
C282        C  0.10667912  0.90675972  0.32287703    -0.00300
C283        C  0.07195724  0.92600088  0.32770803    -0.03900
C284        C  0.05480947  0.92438801  0.35475304     0.03100
C285        C  0.12714031  0.86580590  0.39637427     0.10000
C286        C  0.16078240  0.86777537  0.34058496     0.35900
C287        C  0.01910906  0.94412033  0.35985866     0.39300
C288        C  0.12012139  0.82730803  0.40282436    -0.04300
C289        C  0.13625086  0.81079916  0.42743837     0.02900
C290        C  0.15934864  0.83285357  0.44564007    -0.03900
C291        C  0.16754633  0.87092966  0.43848225    -0.00100
C292        C  0.15145684  0.88733936  0.41392906    -0.02600
C293        C  0.09556397  0.80508667  0.38447781     0.36600
C294        C  0.19233924  0.89332646  0.45657537     0.40200
C295        C  0.12794320  0.77162285  0.43462663     0.39400
C296        C  0.15916262  0.92672355  0.40696411     0.36300
C297        C  0.05455328  0.90182594  0.40457300     0.37000
C298        C  0.12505930  0.90953554  0.29544379     0.40200
N299        N  0.12182188  0.74026371  0.94020680    -0.37900
N300        N  0.07596437  0.78737880  0.36981307    -0.39400
N301        N  0.21206581  0.91111010  0.47109078    -0.37200
N302        N  0.16517982  0.95812724  0.40129720    -0.39600
N303        N  0.18990751  0.85306494  0.33706834    -0.39400
N304        N  0.13985032  0.91198835  0.27361356    -0.37000
N305        N  0.99074555  0.96002836  0.36390944    -0.38000
N306        N  0.04050201  0.90041129  0.42672647    -0.39700
C307        C  0.26635196  0.68143354  0.00850178    -0.04600
C308        C  0.30400061  0.69158493  0.50182591     0.09500
C309        C  0.31265006  0.72977653  0.49540393    -0.02000
C310        C  0.28370628  0.75765567  0.49574083    -0.00300
C311        C  0.24581485  0.74731335  0.50180649    -0.03900
C312        C  0.23723828  0.70915669  0.00825980     0.03100
C313        C  0.33481614  0.66206274  0.00131123     0.10000
C314        C  0.35129723  0.74021760  0.48811431     0.35900
C315        C  0.19825975  0.69838760  0.01421641     0.39300
C316        C  0.33792137  0.63724655  0.47781153    -0.05100
C317        C  0.36688477  0.60936510  0.47725180     0.02900
C318        C  0.39310545  0.60643955  0.00007002    -0.03900
C319        C  0.38951933  0.63077254  0.02373187    -0.00100
C320        C  0.36037996  0.65844947  0.02437977    -0.02600
C321        C  0.31150215  0.64073720  0.45418145     0.36600
C322        C  0.41506626  0.62642443  0.04782824     0.40200
C323        C  0.37033840  0.58429408  0.45294854     0.39400
C324        C  0.35632805  0.68296378  0.04892440     0.36300
C325        C  0.25754502  0.64232007  0.01551940     0.37000
C326        C  0.29293100  0.79714451  0.49033428     0.40200
N327        N  0.37311275  0.56428801  0.43356958    -0.37900
N328        N  0.29030079  0.64356699  0.43541028    -0.39400
N329        N  0.43540222  0.62272958  0.06704659    -0.37200
N330        N  0.35304580  0.70255997  0.06848625    -0.39600
N331        N  0.38215131  0.74844687  0.48226205    -0.39400
N332        N  0.30019331  0.82871523  0.48621787    -0.37000
N333        N  0.16711900  0.68990539  0.01892826    -0.38000
N334        N  0.25062030  0.61107766  0.02109787    -0.39700
C335        C  0.82298171  0.11517088  0.09601075    -0.04600
C336        C  0.85717399  0.12842407  0.10823787     0.09500
C337        C  0.87508008  0.16090353  0.09696075    -0.02000
C338        C  0.86011188  0.17867489  0.07249104    -0.00300
C339        C  0.82730076  0.16388573  0.05917191    -0.03900
C340        C  0.80807950  0.13288014  0.07147066     0.03100
C341        C  0.87597597  0.10681295  0.13176559     0.10000
C342        C  0.90955922  0.17525021  0.11013238     0.35900
C343        C  0.77334347  0.11890328  0.05850083     0.39300
C344        C  0.89912110  0.07511884  0.12535807    -0.04300
C345        C  0.91905167  0.05611173  0.14718489     0.02900
C346        C  0.91748937  0.06988667  0.17532046    -0.03900
C347        C  0.89374995  0.10116739  0.18181635    -0.00100
C348        C  0.87238670  0.11904839  0.16013692    -0.02600
C349        C  0.90289265  0.06247936  0.09618377     0.36600
C350        C  0.89256588  0.11597257  0.21053691     0.40200
C351        C  0.93989005  0.02145606  0.14088128     0.39400
C352        C  0.84678979  0.15012764  0.16689485     0.36300
C353        C  0.80364091  0.08290056  0.10842625     0.37000
C354        C  0.87892088  0.21164443  0.06062177     0.40200
N355        N  0.95592889  0.99345846  0.13594374    -0.37900
N356        N  0.90600228  0.05251715  0.07289500    -0.39400
N357        N  0.89190882  0.12786471  0.23343380    -0.37200
N358        N  0.82609612  0.17473299  0.17226900    -0.39600
N359        N  0.93700037  0.18655748  0.12081033    -0.39400
N360        N  0.89387918  0.23804894  0.05125665    -0.37000
N361        N  0.74555831  0.10798722  0.04809828    -0.38000
N362        N  0.78820527  0.05718199  0.11840057    -0.39700
C363        C  0.91255780  0.12787003  0.36047992    -0.04600
C364        C  0.89220753  0.10538595  0.38010879     0.09500
C365        C  0.88986068  0.06572834  0.37582343    -0.02000
C366        C  0.90710056  0.04888529  0.35191073    -0.00300
C367        C  0.92911028  0.07107276  0.33318065    -0.03900
C368        C  0.93183465  0.11063286  0.33755587     0.03100
C369        C  0.87367361  0.12341662  0.40548523     0.10000
C370        C  0.87034394  0.04210467  0.39635054     0.35900
C371        C  0.95358544  0.13372657  0.31798916     0.39300
C372        C  0.83361413  0.12615221  0.40723112    -0.04300
C373        C  0.81626558  0.14240217  0.43139780     0.02900
C374        C  0.83886141  0.15743683  0.45365777    -0.03900
C375        C  0.87907453  0.15500175  0.45164493    -0.00100
C376        C  0.89626769  0.13751156  0.42795531    -0.02600
C377        C  0.81020955  0.11213684  0.38406838     0.36600
C378        C  0.90304510  0.17094932  0.47377277     0.40200
C379        C  0.77511925  0.14217617  0.43369210     0.39400
C380        C  0.93738347  0.13361322  0.42681159     0.36300
C381        C  0.91314450  0.16884149  0.36368967     0.37000
C382        C  0.90228024  0.00859521  0.34663902     0.40200
N383        N  0.74226189  0.14164309  0.43527708    -0.37900
N384        N  0.79162611  0.10081795  0.36559523    -0.39400
N385        N  0.92216091  0.18345692  0.49149699    -0.37200
N386        N  0.97016740  0.13050662  0.42584724    -0.39600
N387        N  0.85487509  0.02322186  0.41275500    -0.39400
N388        N  0.89798500  0.97656212  0.34222888    -0.37000
N389        N  0.97091441  0.15215570  0.30235714    -0.38000
N390        N  0.91341103  0.20153930  0.36626050    -0.39700
C391        C  0.68539429  0.27432433  0.49005373    -0.04600
C392        C  0.69543678  0.31237022  0.49588253     0.09500
C393        C  0.73358790  0.32112229  0.00259685    -0.02000
C394        C  0.76124836  0.29190826  0.00440225    -0.00300
C395        C  0.75106710  0.25384576  0.99879901    -0.03900
C396        C  0.71305967  0.24519181  0.49166139     0.03100
C397        C  0.66521423  0.34277543  0.99610335     0.10000
C398        C  0.74433019  0.36023314  0.00785196     0.35900
C399        C  0.70200974  0.20599090  0.48713761     0.39300
C400        C  0.63959169  0.34506408  0.01902828    -0.04300
C401        C  0.60984190  0.37220598  0.01886849     0.02900
C402        C  0.60668726  0.39913898  0.99648792    -0.03900
C403        C  0.63309827  0.39712550  0.47380984    -0.00100
C404        C  0.66166613  0.36866861  0.47344321    -0.02600
C405        C  0.64417181  0.31952581  0.04303328     0.36600
C406        C  0.63179403  0.42482412  0.45097669     0.40200
C407        C  0.58157429  0.37097454  0.04124109     0.39400
C408        C  0.68750234  0.36591669  0.44957783     0.36300
C409        C  0.64640942  0.26515602  0.48254989     0.37000
C410        C  0.80007349  0.30087328  0.01248963     0.40200
N411        N  0.55893240  0.36969619  0.05899820    -0.37900
N412        N  0.64807588  0.29926995  0.06220860    -0.39400
N413        N  0.63083160  0.44691169  0.43275630    -0.37200
N414        N  0.70815792  0.36368819  0.43056984    -0.39600
N415        N  0.75288677  0.39152287  0.01175869    -0.39400
N416        N  0.83100108  0.30794970  0.01914028    -0.37000
N417        N  0.69308434  0.17469153  0.48380851    -0.38000
N418        N  0.61528756  0.25786027  0.47659414    -0.39700
C419        C  0.77980347  0.22274869  0.50139978     0.04000
C420        C  0.79539639  0.20582539  0.97696663    -0.12200
C421        C  0.82075358  0.17484753  0.97937879     0.01500
C422        C  0.82991889  0.16090729  0.50647900    -0.10700
C423        C  0.81552442  0.17840191  0.53090253     0.04000
C424        C  0.79041632  0.20922653  0.52834590    -0.10100
H425        H  0.78790601  0.21686170  0.95620431     0.09600
H426        H  0.84886930  0.13670188  0.50867790     0.07100
H427        H  0.77878966  0.22236982  0.54727523     0.06900
C428        C  0.21512411  0.77631094  0.00069511     0.04000
C429        C  0.20011160  0.79139175  0.52591551    -0.12200
C430        C  0.17150541  0.81927257  0.52478820     0.01500
C431        C  0.15786531  0.83183627  0.99838212    -0.10700
C432        C  0.17294908  0.81725346  0.97314575     0.04000
C433        C  0.20153418  0.78937742  0.97434318    -0.10100
H434        H  0.21091908  0.78172556  0.54627938     0.09600
H435        H  0.13598709  0.85363939  0.99750375     0.07100
H436        H  0.21350134  0.77822140  0.95485560     0.06900
Zn437      Zn  0.44459100  0.49353830  0.50041653     1.49700
Zn438      Zn  0.52121200  0.48072458  0.96453149     1.49400
Zn439      Zn  0.50804924  0.55909530  0.49816993     1.49100
Zn440      Zn  0.52507112  0.48144459  0.53191599     1.49500
O441        O  0.49964579  0.50379216  0.49875199    -1.83300
O442        O  0.42693661  0.46388279  0.96604869    -0.73900
O443        O  0.54469906  0.52080325  0.93921724    -0.73700
O444        O  0.45804977  0.58766709  0.49888253    -0.73300
O445        O  0.48017752  0.45538335  0.94169359    -0.73900
O446        O  0.41425073  0.54222160  0.50005520    -0.73500
O447        O  0.53636650  0.57511094  0.96270142    -0.74100
O448        O  0.54949572  0.52210964  0.55562469    -0.73500
O449        O  0.56130941  0.44084565  0.97385823    -0.74300
O450        O  0.53769573  0.57618361  0.53275652    -0.73700
O451        O  0.56543950  0.44291995  0.52081674    -0.74100
O452        O  0.48717445  0.45569946  0.55754467    -0.74000
O453        O  0.43097562  0.46528472  0.53658420    -0.73800
C454        C  0.44437168  0.45127078  0.94431420     0.78000
C455        C  0.54845302  0.55669401  0.94125838     0.78500
C456        C  0.42342903  0.57714130  0.49955247     0.77400
C457        C  0.55171608  0.55813028  0.55382655     0.77800
C458        C  0.57620808  0.42923009  0.49710751     0.78900
C459        C  0.45111176  0.45231679  0.55701236     0.78000
C460        C  0.27820831  0.28306769  0.74844394     0.04000
C461        C  0.28942505  0.29775809  0.77488619    -0.12200
C462        C  0.31715471  0.32617163  0.77644680     0.01500
C463        C  0.33367678  0.34003770  0.75153868    -0.10700
C464        C  0.32349427  0.32525723  0.72492217     0.04000
C465        C  0.29547585  0.29670450  0.72348584    -0.10100
H466        H  0.27658952  0.28712905  0.79417921     0.09600
H467        H  0.35484563  0.36231584  0.75293514     0.07100
H468        H  0.28730465  0.28498248  0.70310832     0.06900
C469        C  0.72671148  0.71773143  0.74852902     0.04000
C470        C  0.71223009  0.70462244  0.72251029    -0.12200
C471        C  0.68201727  0.67876546  0.72200769     0.01500
C472        C  0.66652063  0.66574288  0.74747892    -0.10700
C473        C  0.68118109  0.67765333  0.77369266     0.04000
C474        C  0.71129490  0.70401412  0.77414665    -0.10100
H475        H  0.72367209  0.71531379  0.70276339     0.09600
H476        H  0.64271437  0.64614738  0.74686311     0.07100
H477        H  0.72249239  0.71397661  0.79424808     0.06900
Zn478      Zn  0.01971779  0.02660637  0.71712544     1.49700
Zn479      Zn  0.00989352  0.94700555  0.74904727     1.49400
Zn480      Zn  0.02424851  0.02475482  0.78424992     1.49100
Zn481      Zn  0.94409765  0.00937071  0.75376349     1.49500
O482        O  0.99944864  0.00187999  0.75111552    -1.83300
O483        O  0.04690071  0.98897992  0.69218060    -0.73900
O484        O  0.04134889  0.93040220  0.78280571    -0.73700
O485        O  0.06493787  0.06291564  0.77293770    -0.73300
O486        O  0.03779575  0.93341674  0.71292821    -0.73900
O487        O  0.05779752  0.06808353  0.72636058    -0.73500
O488        O  0.04859168  0.98357570  0.80793167    -0.74100
O489        O  0.92988475  0.03746517  0.78951991    -0.73500
O490        O  0.96136429  0.91601234  0.74978636    -0.74300
O491        O  0.98566510  0.05128157  0.80952609    -0.73700
O492        O  0.91562221  0.95946565  0.75394581    -0.74100
O493        O  0.92481748  0.03891528  0.71995647    -0.74000
O494        O  0.97673030  0.04870213  0.69396946    -0.73800
C495        C  0.05112589  0.95306088  0.69254786     0.78000
C496        C  0.05335485  0.94793611  0.80471087     0.78500
C497        C  0.07409849  0.07816491  0.74936034     0.77400
C498        C  0.94938712  0.05262048  0.80930923     0.77800
C499        C  0.92635513  0.92499834  0.75192960     0.78900
C500        C  0.94094538  0.05165274  0.69775376     0.78000
C501        C  0.77333354  0.81511776  0.75286663    -0.04600
C502        C  0.81198075  0.80603394  0.74823500     0.09500
C503        C  0.82256786  0.76795864  0.74288626    -0.02000
C504        C  0.79482837  0.73896315  0.74311492    -0.00300
C505        C  0.75632562  0.74792190  0.74868291    -0.03900
C506        C  0.74560049  0.78620245  0.75298196     0.03100
C507        C  0.84156965  0.83664198  0.74917501     0.10000
C508        C  0.86199894  0.75882976  0.73682302     0.35900
C509        C  0.70574348  0.79597997  0.75644246     0.39300
C510        C  0.85755219  0.84782876  0.77542780    -0.04300
C511        C  0.88576093  0.87631519  0.77637057     0.02900
C512        C  0.89722781  0.89463148  0.75115724    -0.03900
C513        C  0.88080991  0.88389607  0.72497293    -0.00100
C514        C  0.85348921  0.85459629  0.72392701    -0.02600
C515        C  0.84479588  0.82999300  0.80145888     0.36600
C516        C  0.89208845  0.90314904  0.69910485     0.40200
C517        C  0.90327671  0.88646522  0.80323085     0.39400
C518        C  0.83770441  0.84275534  0.69687288     0.36300
C519        C  0.76207687  0.85440652  0.75698676     0.37000
C520        C  0.80582644  0.69995837  0.73742858     0.40200
N521        N  0.91741022  0.89417392  0.82469569    -0.37900
N522        N  0.83435473  0.81582044  0.82218027    -0.39400
N523        N  0.90111275  0.91874851  0.67857828    -0.37200
N524        N  0.82527379  0.83312699  0.67526390    -0.39600
N525        N  0.89347019  0.75177912  0.73180603    -0.39400
N526        N  0.81462410  0.66886253  0.73277268    -0.37000
N527        N  0.67389481  0.80379936  0.75887739    -0.38000
N528        N  0.75310614  0.88578881  0.76015480    -0.39700
C529        C  0.18248234  0.23356006  0.73868405    -0.04600
C530        C  0.19144487  0.19602920  0.74708444     0.09500
C531        C  0.22903074  0.18707185  0.75559406    -0.02000
C532        C  0.25750803  0.21531296  0.75544686    -0.00300
C533        C  0.24851390  0.25292211  0.74721838    -0.03900
C534        C  0.21076169  0.26202728  0.73915768     0.03100
C535        C  0.16112421  0.16600087  0.74748464     0.10000
C536        C  0.23820768  0.14882398  0.76490815     0.35900
C537        C  0.20061868  0.30102989  0.73255781     0.39300
C538        C  0.15727469  0.14053834  0.72457229    -0.04300
C539        C  0.12940332  0.11162301  0.72523328     0.02900
C540        C  0.10425124  0.10840886  0.74868893    -0.03900
C541        C  0.10808025  0.13451978  0.77149815    -0.00100
C542        C  0.13651833  0.16283296  0.77093128    -0.02600
C543        C  0.18209812  0.14434040  0.70019364     0.36600
C544        C  0.08217195  0.13321825  0.79538769     0.40200
C545        C  0.12781595  0.08450113  0.70206902     0.39400
C546        C  0.14052026  0.18894056  0.79456730     0.36300
C547        C  0.14401263  0.24283610  0.72969964     0.37000
C548        C  0.29613185  0.20572430  0.76387583     0.40200
N549        N  0.12677877  0.06292021  0.68355003    -0.37900
N550        N  0.20190006  0.14762183  0.68077609    -0.39400
N551        N  0.06157383  0.13216931  0.81448397    -0.37200
N552        N  0.14372487  0.20978693  0.81340619    -0.39600
N553        N  0.24545259  0.11831016  0.77241705    -0.39400
N554        N  0.32696065  0.19809495  0.77059222    -0.37000
N555        N  0.19226495  0.33219679  0.72764051    -0.38000
N556        N  0.11329808  0.25012035  0.72248452    -0.39700
C557        C  0.41421488  0.37451012  0.60558332    -0.04600
C558        C  0.39826247  0.39597727  0.62795314     0.09500
C559        C  0.39977525  0.43609396  0.62689510    -0.02000
C560        C  0.41633342  0.45455324  0.60337358    -0.00300
C561        C  0.43223311  0.43300973  0.58107119    -0.03900
C562        C  0.43128455  0.39298904  0.58228725     0.03100
C563        C  0.37904669  0.37636676  0.65231625     0.10000
C564        C  0.38466172  0.45832191  0.65022155     0.35900
C565        C  0.44747190  0.37089439  0.55929351     0.39300
C566        C  0.40081345  0.35810826  0.67361968    -0.04300
C567        C  0.38259773  0.33955589  0.69641878     0.02900
C568        C  0.34237537  0.34053501  0.69885114    -0.03900
C569        C  0.32068831  0.35885899  0.67742633    -0.00100
C570        C  0.33892936  0.37619297  0.65411445    -0.02600
C571        C  0.44206185  0.35933316  0.67243211     0.36600
C572        C  0.27962949  0.36135552  0.67981985     0.40200
C573        C  0.40535394  0.31905670  0.71722571     0.39400
C574        C  0.31641636  0.39446888  0.63206427     0.36300
C575        C  0.41293018  0.33336047  0.60652004     0.37000
C576        C  0.41714013  0.49574408  0.60213597     0.40200
N577        N  0.42350677  0.30265676  0.73378745    -0.37900
N578        N  0.47495792  0.36053125  0.67149794    -0.39400
N579        N  0.24684691  0.36354059  0.68154662    -0.37200
N580        N  0.29857966  0.40919577  0.61447530    -0.39600
N581        N  0.37262231  0.47599379  0.66887317    -0.39400
N582        N  0.41768259  0.52860112  0.60111161    -0.37000
N583        N  0.46035596  0.35343976  0.54084454    -0.38000
N584        N  0.41205401  0.30051192  0.60735800    -0.39700
C585        C  0.41352229  0.41931177  0.87023636    -0.04600
C586        C  0.38231285  0.39577582  0.87644608     0.09500
C587        C  0.37090636  0.39064625  0.90482530    -0.02000
C588        C  0.39106825  0.40851996  0.92710213    -0.00300
C589        C  0.42261515  0.43221023  0.92102577    -0.03900
C590        C  0.43333184  0.43781776  0.89228193     0.03100
C591        C  0.36212741  0.37578823  0.85282593     0.10000
C592        C  0.33852928  0.36661058  0.91100540     0.35900
C593        C  0.46410314  0.46343941  0.88500388     0.39300
C594        C  0.37461738  0.33948638  0.84412546    -0.04300
C595        C  0.35867601  0.32240938  0.81978306     0.02900
C596        C  0.32996040  0.34146606  0.80420662    -0.03900
C597        C  0.31606832  0.37686412  0.81378574    -0.00100
C598        C  0.33236312  0.39416978  0.83792082    -0.02600
C599        C  0.40475632  0.32034768  0.85977549     0.36600
C600        C  0.28527350  0.39556113  0.79856115     0.40200
C601        C  0.37268711  0.28580755  0.81020416     0.39400
C602        C  0.31941564  0.43139912  0.84695901     0.36300
C603        C  0.42538510  0.42426471  0.84097520     0.37000
C604        C  0.37992850  0.40130515  0.95623531     0.40200
N605        N  0.38393708  0.25661105  0.80259427    -0.37900
N606        N  0.42880191  0.30519745  0.87234564    -0.39400
N607        N  0.26054318  0.41026720  0.78644396    -0.37200
N608        N  0.30924269  0.46117521  0.85415494    -0.39600
N609        N  0.31265253  0.34744084  0.91582531    -0.39400
N610        N  0.37097101  0.39546182  0.97945058    -0.37000
N611        N  0.48867281  0.48375832  0.87911500    -0.38000
N612        N  0.43486988  0.42808326  0.81764842    -0.39700
C613        C  0.61491331  0.62750825  0.59447749    -0.04600
C614        C  0.60645231  0.61774646  0.62278559     0.09500
C615        C  0.57913231  0.58954141  0.62846118    -0.02000
C616        C  0.56069004  0.57073735  0.60590788    -0.00300
C617        C  0.57010561  0.57941100  0.57741692    -0.03900
C618        C  0.59710063  0.60817927  0.57181271     0.03100
C619        C  0.62750123  0.63592641  0.64678419     0.10000
C620        C  0.57040216  0.57951604  0.65761137     0.35900
C621        C  0.60788911  0.61682377  0.54283440     0.39300
C622        C  0.61087384  0.66622330  0.66197722    -0.04300
C623        C  0.62953060  0.68121972  0.68599945     0.02900
C624        C  0.66491967  0.66605526  0.69484309    -0.03900
C625        C  0.68215435  0.63660570  0.67910327    -0.00100
C626        C  0.66347680  0.62160320  0.65507340    -0.02600
C627        C  0.57435412  0.68157143  0.65306841     0.36600
C628        C  0.71841950  0.62085552  0.68824030     0.40200
C629        C  0.61215785  0.71191742  0.70197318     0.39400
C630        C  0.68075830  0.59081445  0.63916221     0.36300
C631        C  0.64231966  0.65724888  0.58881226     0.37000
C632        C  0.53137264  0.54303199  0.61216009     0.40200
N633        N  0.59851699  0.73636424  0.71487841    -0.37900
N634        N  0.54521794  0.69386682  0.64597244    -0.39400
N635        N  0.74732971  0.60823035  0.69553347    -0.37200
N636        N  0.69439190  0.56631388  0.62631060    -0.39600
N637        N  0.56347903  0.57146879  0.68084938    -0.39400
N638        N  0.50801472  0.52095656  0.61718860    -0.37000
N639        N  0.61667859  0.62368586  0.51974260    -0.38000
N640        N  0.66416329  0.68106282  0.58446785    -0.39700
C641        C  0.62519006  0.60402754  0.89708513    -0.04600
C642        C  0.60455637  0.61445010  0.87246010     0.09500
C643        C  0.56510150  0.60710519  0.87092126    -0.02000
C644        C  0.54658758  0.58866229  0.89362280    -0.00300
C645        C  0.56744821  0.57753190  0.91796956    -0.03900
C646        C  0.60667532  0.58565722  0.91978723     0.03100
C647        C  0.62493612  0.63117087  0.84751728     0.10000
C648        C  0.54375978  0.61806645  0.84576718     0.35900
C649        C  0.62807791  0.57447568  0.94486432     0.39300
C650        C  0.64382200  0.60701048  0.82825620    -0.04300
C651        C  0.66364992  0.62235815  0.80496260     0.02900
C652        C  0.66408642  0.66213600  0.80029232    -0.03900
C653        C  0.64495548  0.68630474  0.81959533    -0.00100
C654        C  0.62550655  0.67083605  0.84312856    -0.02600
C655        C  0.64183076  0.56614230  0.83202770     0.36600
C656        C  0.64382304  0.72696211  0.81468797     0.40200
C657        C  0.68353845  0.59704238  0.78569680     0.39400
C658        C  0.60513355  0.69559863  0.86246234     0.36300
C659        C  0.66563969  0.61180562  0.89882422     0.37000
C660        C  0.50607646  0.58105660  0.89194900     0.40200
N661        N  0.69922525  0.57688046  0.77022246    -0.37900
N662        N  0.63991625  0.53356232  0.83500867    -0.39400
N663        N  0.64274705  0.75945151  0.81096272    -0.37200
N664        N  0.58863326  0.71530045  0.87779298    -0.39600
N665        N  0.52679478  0.62691856  0.82568650    -0.39400
N666        N  0.47373880  0.57506118  0.89064722    -0.37000
N667        N  0.64506593  0.56548045  0.96489749    -0.38000
N668        N  0.69793186  0.61800299  0.90011941    -0.39700
C669        C  0.16256650  0.88275402  0.58965716    -0.04600
C670        C  0.12502668  0.87480640  0.59832349     0.09500
C671        C  0.10338986  0.84739798  0.58361114    -0.02000
C672        C  0.11904070  0.82833715  0.56007039    -0.00300
C673        C  0.15636507  0.83671882  0.55108547    -0.03900
C674        C  0.17819747  0.86380524  0.56602491     0.03100
C675        C  0.10780940  0.89574204  0.62272230     0.10000
C676        C  0.06478788  0.83930100  0.59253127     0.35900
C677        C  0.21628094  0.87301058  0.55647678     0.39300
C678        C  0.08975957  0.93100887  0.61819055    -0.04300
C679        C  0.07199539  0.95015547  0.64090516     0.02900
C680        C  0.07158379  0.93373433  0.66856705    -0.03900
C681        C  0.09058993  0.89840403  0.67292140    -0.00100
C682        C  0.10865835  0.87975194  0.65010505    -0.02600
C683        C  0.08910898  0.94735034  0.58986295     0.36600
C684        C  0.09252626  0.88114774  0.70088983     0.40200
C685        C  0.05378465  0.98648585  0.63519770     0.39400
C686        C  0.12831526  0.84389568  0.65469613     0.36300
C687        C  0.18481988  0.91081676  0.60487368     0.37000
C688        C  0.09675702  0.80012610  0.54500468     0.40200
N689        N  0.03976781  0.01563864  0.63042477    -0.37900
N690        N  0.08859626  0.96031342  0.56726995    -0.39400
N691        N  0.09404081  0.86709035  0.72309631    -0.37200
N692        N  0.14410184  0.81534442  0.65824226    -0.39600
N693        N  0.03399549  0.83296859  0.59972566    -0.39400
N694        N  0.07873833  0.77798690  0.03260171    -0.37000
N695        N  0.24662240  0.88027814  0.54873718    -0.38000
N696        N  0.20252465  0.93324501  0.61703082    -0.39700
C697        C  0.07243298  0.90362091  0.87682267    -0.04600
C698        C  0.10733186  0.88474214  0.87206523     0.09500
C699        C  0.12445388  0.88628828  0.84505445    -0.02000
C700        C  0.10673532  0.90675904  0.82283025    -0.00300
C701        C  0.07205792  0.92605903  0.82770754    -0.03900
C702        C  0.05497930  0.92449294  0.85477810     0.03100
C703        C  0.12731128  0.86580554  0.89630452     0.10000
C704        C  0.16078519  0.86763541  0.84045471     0.35900
C705        C  0.01932784  0.94429151  0.85993214     0.39300
C706        C  0.12039044  0.82727453  0.90270122    -0.04300
C707        C  0.13651005  0.81076546  0.92731790     0.02900
C708        C  0.15950251  0.83285234  0.94557232    -0.03900
C709        C  0.16762857  0.87095808  0.93845554    -0.00100
C710        C  0.15154416  0.88736910  0.91390216    -0.02600
C711        C  0.09593533  0.80501924  0.88430160     0.36600
C712        C  0.19234134  0.89338392  0.95658922     0.40200
C713        C  0.12829225  0.77155339  0.93445643     0.39400
C714        C  0.15916096  0.92678561  0.90698169     0.36300
C715        C  0.05482984  0.90197909  0.90460964     0.37000
C716        C  0.12507500  0.90953562  0.79538166     0.40200
N717        N  0.12139847  0.74036167  0.44041561    -0.37900
N718        N  0.07642093  0.78728114  0.86959416    -0.39400
N719        N  0.21200565  0.91119423  0.97113324    -0.37200
N720        N  0.16510069  0.95821530  0.90134850    -0.39600
N721        N  0.18985700  0.85284115  0.83688965    -0.39400
N722        N  0.13983917  0.91199934  0.77354195    -0.37000
N723        N  0.99100372  0.96025218  0.86402078    -0.38000
N724        N  0.04084963  0.90062211  0.92679036    -0.39700
C725        C  0.26626393  0.68143580  0.50861836    -0.04600
C726        C  0.30411770  0.69165824  0.00186749     0.09500
C727        C  0.31277003  0.72989075  0.99559093    -0.02000
C728        C  0.28379775  0.75774008  0.99591932    -0.00300
C729        C  0.24587808  0.74732378  0.00181480    -0.03900
C730        C  0.23718018  0.70919128  0.50840504     0.03100
C731        C  0.33467792  0.66196173  0.50128558     0.10000
C732        C  0.35144720  0.74040164  0.98844742     0.35900
C733        C  0.19823570  0.69850074  0.51455998     0.39300
C734        C  0.33830789  0.63762554  0.97769645    -0.05100
C735        C  0.36727027  0.60974475  0.97712921     0.02900
C736        C  0.39295257  0.60631323  0.50006698    -0.03900
C737        C  0.38958978  0.63089935  0.52360216    -0.00100
C738        C  0.36047569  0.65860320  0.52423114    -0.02600
C739        C  0.31214105  0.64140022  0.95393472     0.36600
C740        C  0.41532511  0.62677109  0.54760865     0.40200
C741        C  0.37095468  0.58492377  0.95270258     0.39400
C742        C  0.35670411  0.68342197  0.54863026     0.36300
C743        C  0.25745343  0.64236651  0.51577078     0.37000
C744        C  0.29301468  0.79726793  0.99066734     0.40200
N745        N  0.37391135  0.56511575  0.93322558    -0.37900
N746        N  0.29114441  0.64446512  0.93505609    -0.39400
N747        N  0.43580301  0.62324380  0.56676048    -0.37200
N748        N  0.35365535  0.70327112  0.56807064    -0.39600
N749        N  0.38232349  0.74868552  0.98270344    -0.39400
N750        N  0.30026897  0.82886907  0.98667525    -0.37000
N751        N  0.16712351  0.69008306  0.51943635    -0.38000
N752        N  0.25052214  0.61115746  0.52144845    -0.39700
C753        C  0.82299197  0.11537761  0.59609045    -0.04600
C754        C  0.85728791  0.12848582  0.60824433     0.09500
C755        C  0.87534870  0.16081935  0.59687136    -0.02000
C756        C  0.86042334  0.17857580  0.57238011    -0.00300
C757        C  0.82748854  0.16392862  0.55914236    -0.03900
C758        C  0.80812103  0.13308387  0.57153778     0.03100
C759        C  0.87602665  0.10685989  0.63179470     0.10000
C760        C  0.90992800  0.17503654  0.60997551     0.35900
C761        C  0.77326078  0.11926861  0.55865664     0.39300
C762        C  0.89900485  0.07503229  0.62542095    -0.04300
C763        C  0.91890521  0.05601469  0.64725860     0.02900
C764        C  0.91744920  0.06987831  0.67537256    -0.03900
C765        C  0.89385069  0.10127358  0.68184164    -0.00100
C766        C  0.87254856  0.11920191  0.66014924    -0.02600
C767        C  0.90263819  0.06226499  0.59626787     0.36600
C768        C  0.89275047  0.11613641  0.71054757     0.40200
C769        C  0.93961875  0.02127299  0.64098993     0.39400
C770        C  0.84714187  0.15044849  0.66687519     0.36300
C771        C  0.80350756  0.08325659  0.60859528     0.37000
C772        C  0.87938149  0.21139937  0.56041896     0.40200
N773        N  0.95556374  0.99321292  0.63608098    -0.37900
N774        N  0.90563269  0.05219824  0.57299560    -0.39400
N775        N  0.89215655  0.12806706  0.73343432    -0.37200
N776        N  0.82660563  0.17519439  0.67222522    -0.39600
N777        N  0.93744614  0.18624409  0.62060222    -0.39400
N778        N  0.89445939  0.23768934  0.55098189    -0.37000
N779        N  0.74537545  0.10848557  0.54832554    -0.38000
N780        N  0.78795875  0.05765568  0.61863962    -0.39700
C781        C  0.91265895  0.12789327  0.86056378    -0.04600
C782        C  0.89230988  0.10540370  0.88018820     0.09500
C783        C  0.88996160  0.06574862  0.87589892    -0.02000
C784        C  0.90718889  0.04891259  0.85197952    -0.00300
C785        C  0.92919279  0.07110422  0.83324803    -0.03900
C786        C  0.93192918  0.11066220  0.83763382     0.03100
C787        C  0.87375013  0.12342663  0.90555414     0.10000
C788        C  0.87044761  0.04212293  0.89642643     0.35900
C789        C  0.95367805  0.13376112  0.81806970     0.39300
C790        C  0.83369047  0.12619450  0.90725676    -0.04300
C791        C  0.81630852  0.14242260  0.93141618     0.02900
C792        C  0.83887322  0.15740813  0.95371138    -0.03900
C793        C  0.87908953  0.15492335  0.95175009    -0.00100
C794        C  0.89631409  0.13745963  0.92806207    -0.02600
C795        C  0.81032020  0.11223332  0.88405651     0.36600
C796        C  0.90303045  0.17077537  0.97393511     0.40200
C797        C  0.77515786  0.14221012  0.93367167     0.39400
C798        C  0.93742820  0.13352090  0.92695892     0.36300
C799        C  0.91323620  0.16886406  0.86377791     0.37000
C800        C  0.90235402  0.00862686  0.84669957     0.40200
N801        N  0.74229782  0.14168461  0.93522890    -0.37900
N802        N  0.79176345  0.10096083  0.86555253    -0.39400
N803        N  0.92211882  0.18319926  0.99170928    -0.37200
N804        N  0.97021094  0.13038000  0.92602828    -0.39600
N805        N  0.85498323  0.02324045  0.91283343    -0.39400
N806        N  0.89804431  0.97659759  0.84228300    -0.37000
N807        N  0.97100534  0.15219577  0.80244030    -0.38000
N808        N  0.91348833  0.20156193  0.86634972    -0.39700
C809        C  0.68535423  0.27430200  0.98997056    -0.04600
C810        C  0.69538805  0.31235165  0.99579543     0.09500
C811        C  0.73364050  0.32113184  0.50267681    -0.02000
C812        C  0.76129905  0.29191333  0.50446431    -0.00300
C813        C  0.75111352  0.25385560  0.49884410    -0.03900
C814        C  0.71302084  0.24517382  0.99160003     0.03100
C815        C  0.66526897  0.34280120  0.49619452     0.10000
C816        C  0.74438915  0.36023870  0.50793992     0.35900
C817        C  0.70198011  0.20596983  0.98707750     0.39300
C818        C  0.63970289  0.34514709  0.51915041    -0.04300
C819        C  0.60995314  0.37229213  0.51899547     0.02900
C820        C  0.60672553  0.39915640  0.49657123    -0.03900
C821        C  0.63311072  0.39716734  0.97375855    -0.00100
C822        C  0.66166672  0.36870000  0.97338263    -0.02600
C823        C  0.64433796  0.31965727  0.54317872     0.36600
C824        C  0.63187114  0.42493997  0.95097390     0.40200
C825        C  0.58176637  0.37113486  0.54142679     0.39400
C826        C  0.68754788  0.36599889  0.94954122     0.36300
C827        C  0.64637680  0.26512437  0.98245020     0.37000
C828        C  0.80012664  0.30086780  0.51255251     0.40200
N829        N  0.55919427  0.36991596  0.55923578    -0.37900
N830        N  0.64828652  0.29943784  0.56237072    -0.39400
N831        N  0.63096134  0.44708854  0.93279369    -0.37200
N832        N  0.70823962  0.36381140  0.93055262    -0.39600
N833        N  0.75295178  0.39152486  0.51185514    -0.39400
N834        N  0.83105591  0.30793182  0.51920652    -0.37000
N835        N  0.69306195  0.17466849  0.98374782    -0.38000
N836        N  0.61526091  0.25782017  0.97648273    -0.39700
loop_ 
_geom_bond_atom_site_label_1 
_geom_bond_atom_site_label_2 
_geom_bond_distance 
_geom_bond_site_symmetry_2 
_ccdc_geom_bond_type 
C1            C6   1.403       .  A
C1          C420   1.408   1_554  A
C1          C395   1.489   1_554  S
C2            C3   1.409       .  A
C2          C419   1.408       .  A
C2            H7   1.083       .  S
C3          C422   1.404       .  A
C3          C374   1.499       .  S
C4            C5   1.401       .  A
C4          C421   1.404   1_554  A
C4            H8   1.083       .  S
C5            C6   1.400       .  A
C5          C339   1.482       .  S
C6            H9   1.085       .  S
C10          C15   1.404       .  A
C10         C429   1.404       .  A
C10         C311   1.483       .  S
C11          C12   1.402       .  A
C11         C428   1.404       .  A
C11          H16   1.084       .  S
C12         C431   1.399   1_554  A
C12         C255   1.483       .  S
C13          C14   1.400       .  A
C13         C430   1.399       .  A
C13          H17   1.084       .  S
C14          C15   1.402       .  A
C14         C290   1.484       .  S
C15          H18   1.084       .  S
Zn19         O23   1.970   1_554  S
Zn19         O28   2.014       .  S
Zn19         O35   2.031       .  S
Zn19        O442   2.025   1_554  S
Zn20        O441   1.959       .  S
Zn20         O25   2.027       .  S
Zn20         O27   2.007       .  S
Zn20         O31   2.031       .  S
Zn21         O23   1.970       .  S
Zn21         O26   2.020       .  S
Zn21         O32   2.023   1_556  S
Zn21        O447   2.027       .  S
Zn22         O23   1.958   1_554  S
Zn22         O30   2.009       .  S
Zn22         O33   2.028       .  S
Zn22         O34   2.018       .  S
O23        Zn438   1.959       .  S
O24        Zn437   2.025       .  S
O24          C36   1.274       .  A
O25          C37   1.274       .  A
O26          C38   1.273       .  A
O27          C36   1.273       .  A
O28          C38   1.272   1_554  A
O29        Zn439   2.027       .  S
O29          C37   1.274       .  A
O30          C39   1.273       .  A
O31         C458   1.275       .  A
O32          C39   1.274       .  A
O33          C40   1.275   1_554  A
O34          C41   1.273       .  A
O35          C41   1.275       .  A
C36         C171   1.495       .  S
C37         C227   1.481       .  S
C38         C318   1.480   1_556  S
C39         C199   1.487       .  S
C40         C402   1.503       .  S
C40         O449   1.275       .  A
C41         C143   1.481       .  S
C42          C43   1.404       .  A
C42          C47   1.410       .  A
C42         C115   1.492       .  S
C43          C44   1.401       .  A
C43          H48   1.083       .  S
C44          C45   1.399       .  A
C44         C178   1.483       .  S
C45          C46   1.403       .  A
C45          H49   1.085       .  S
C46          C47   1.411       .  A
C46         C150   1.498       .  S
C47          H50   1.083       .  S
C51          C52   1.404       .  A
C51          C56   1.410       .  A
C51          C87   1.490       .  S
C52          C53   1.401       .  A
C52          H57   1.083       .  S
C53          C54   1.397       .  A
C53         C206   1.481       .  S
C54          C55   1.401       .  A
C54          H58   1.086       .  S
C55          C56   1.410       .  A
C55         C234   1.495       .  S
C56          H59   1.083       .  S
Zn60         O64   1.959   1_455  S
Zn60         O65   2.012   1_545  S
Zn60         O69   2.030       .  S
Zn60         O76   2.012   1_455  S
Zn61         O64   1.967   1_465  S
Zn61         O66   2.017       .  S
Zn61         O68   2.024       .  S
Zn61         O72   2.028   1_455  S
Zn62         O64   1.959   1_455  S
Zn62         O67   2.038       .  S
Zn62         O70   2.013   1_545  S
Zn62         O73   2.033   1_455  S
Zn63         O64   1.965       .  S
Zn63         O71   2.017       .  S
Zn63         O74   2.024   1_545  S
Zn63         O75   2.014       .  S
O65          C77   1.272       .  A
O66          C78   1.274       .  A
O67          C79   1.276       .  A
O68          C77   1.274       .  A
O69          C79   1.274       .  A
O70          C78   1.274       .  A
O71          C80   1.273       .  A
O72          C81   1.273       .  A
O73          C80   1.275       .  A
O74          C81   1.272       .  A
O75          C82   1.273       .  A
O76          C82   1.274       .  A
C77         C262   1.503       .  S
C78         C283   1.478       .  S
C79         C122   1.505       .  S
C80         C367   1.484       .  S
C81          C94   1.483       .  S
C82         C346   1.480       .  S
C83          C84   1.411       .  A
C83          C88   1.412       .  A
C83         C101   1.450       .  S
C84          C85   1.412       .  A
C84          C89   1.500       .  S
C85          C86   1.414       .  A
C85          C90   1.450       .  S
C86          C87   1.413       .  A
C86         C102   1.450       .  S
C87          C88   1.412       .  A
C88          C91   1.450       .  S
C89          C92   1.413       .  A
C89          C96   1.412       .  A
C90         N107   1.157       .  T
C91         N109   1.157       .  T
C92          C93   1.413       .  A
C92          C97   1.450       .  S
C93          C94   1.412       .  A
C93          C99   1.450       .  S
C94          C95   1.412       .  A
C95          C96   1.412       .  A
C95          C98   1.451       .  S
C96         C100   1.450       .  S
C97         N104   1.157       .  T
C98         N105   1.157       .  T
C99         N103   1.157       .  T
C100        N106   1.157       .  T
C101        N110   1.157       .  T
C102        N108   1.157       .  T
C111        C112   1.412       .  A
C111        C116   1.414       .  A
C111        C129   1.450       .  S
C112        C113   1.412       .  A
C112        C117   1.504       .  S
C113        C114   1.413       .  A
C113        C118   1.450       .  S
C114        C115   1.413       .  A
C114        C130   1.450       .  S
C115        C116   1.413       .  A
C116        C119   1.450       .  S
C117        C120   1.410       .  A
C117        C124   1.410       .  A
C118        N135   1.157       .  T
C119        N137   1.157       .  T
C120        C121   1.415       .  A
C120        C125   1.451       .  S
C121        C122   1.422       .  A
C121        C127   1.451       .  S
C122        C123   1.421       .  A
C123        C124   1.414       .  A
C123        C126   1.451       .  S
C124        C128   1.451       .  S
C125        N132   1.157       .  T
C126        N133   1.157       .  T
C127        N131   1.158       .  T
C128        N134   1.157       .  T
C129        N138   1.157       .  T
C130        N136   1.157       .  T
C139        C140   1.413       .  A
C139        C144   1.412       .  A
C139        C157   1.450       .  S
C140        C141   1.414       .  A
C140        C145   1.503       .  S
C141        C142   1.412       .  A
C141        C146   1.451       .  S
C142        C143   1.412       .  A
C142        C158   1.451       .  S
C143        C144   1.410       .  A
C144        C147   1.451       .  S
C145        C148   1.411       .  A
C145        C152   1.412       .  A
C146        N163   1.157       .  T
C147        N165   1.157       .  T
C148        C149   1.413       .  A
C148        C153   1.451       .  S
C149        C150   1.418       .  A
C149        C155   1.451       .  S
C150        C151   1.415       .  A
C151        C152   1.413       .  A
C151        C154   1.449       .  S
C152        C156   1.451       .  S
C153        N160   1.157       .  T
C154        N161   1.157       .  T
C155        N159   1.157       .  T
C156        N162   1.157       .  T
C157        N166   1.157       .  T
C158        N164   1.157       .  T
C167        C168   1.408       .  A
C167        C172   1.409       .  A
C167        C185   1.452       .  S
C168        C169   1.409       .  A
C168        C173   1.495       .  S
C169        C170   1.413       .  A
C169        C174   1.450       .  S
C170        C171   1.419       .  A
C170        C186   1.451       .  S
C171        C172   1.421       .  A
C172        C175   1.452       .  S
C173        C176   1.411       .  A
C173        C180   1.411       .  A
C174        N191   1.157       .  T
C175        N193   1.157       .  T
C176        C177   1.410       .  A
C176        C181   1.450       .  S
C177        C178   1.411       .  A
C177        C183   1.450       .  S
C178        C179   1.411       .  A
C179        C180   1.410       .  A
C179        C182   1.450       .  S
C180        C184   1.450       .  S
C181        N188   1.157       .  T
C182        N189   1.157       .  T
C183        N187   1.157       .  T
C184        N190   1.157       .  T
C185        N194   1.157       .  T
C186        N192   1.157       .  T
C195        C196   1.410       .  A
C195        C200   1.412       .  A
C195        C213   1.450       .  S
C196        C197   1.410       .  A
C196        C201   1.494       .  S
C197        C198   1.409       .  A
C197        C202   1.452       .  S
C198        C199   1.417       .  A
C198        C214   1.452       .  S
C199        C200   1.415       .  A
C200        C203   1.450       .  S
C201        C204   1.411       .  A
C201        C208   1.412       .  A
C202        N219   1.157       .  T
C203        N221   1.157       .  T
C204        C205   1.409       .  A
C204        C209   1.450       .  S
C205        C206   1.412       .  A
C205        C211   1.451       .  S
C206        C207   1.411       .  A
C207        C208   1.410       .  A
C207        C210   1.450       .  S
C208        C212   1.451       .  S
C209        N216   1.157       .  T
C210        N217   1.157       .  T
C211        N215   1.157       .  T
C212        N218   1.157       .  T
C213        N222   1.157       .  T
C214        N220   1.157       .  T
C223        C224   1.412       .  A
C223        C228   1.411       .  A
C223        C241   1.450       .  S
C224        C225   1.412       .  A
C224        C229   1.499       .  S
C225        C226   1.413       .  A
C225        C230   1.450       .  S
C226        C227   1.412       .  A
C226        C242   1.451       .  S
C227        C228   1.411       .  A
C228        C231   1.450       .  S
C229        C232   1.410       .  A
C229        C236   1.411       .  A
C230        N247   1.157       .  T
C231        N249   1.157       .  T
C232        C233   1.410       .  A
C232        C237   1.451       .  S
C233        C234   1.417       .  A
C233        C239   1.452       .  S
C234        C235   1.416       .  A
C235        C236   1.414       .  A
C235        C238   1.449       .  S
C236        C240   1.450       .  S
C237        N244   1.157       .  T
C238        N245   1.157       .  T
C239        N243   1.157       .  T
C240        N246   1.157       .  T
C241        N250   1.157       .  T
C242        N248   1.157       .  T
C251        C252   1.411       .  A
C251        C256   1.410       .  A
C251        C269   1.450       .  S
C252        C253   1.411       .  A
C252        C257   1.494       .  S
C253        C254   1.409       .  A
C253        C258   1.450       .  S
C254        C255   1.412       .  A
C254        C270   1.451       .  S
C255        C256   1.412       .  A
C256        C259   1.451       .  S
C257        C260   1.407       .  A
C257        C264   1.407       .  A
C258        N275   1.157       .  T
C259        N277   1.157       .  T
C260        C261   1.411       .  A
C260        C265   1.452       .  S
C261        C262   1.425       .  A
C261        C267   1.452       .  S
C262        C263   1.423       .  A
C263        C264   1.412       .  A
C263        C266   1.451       .  S
C264        C268   1.451       .  S
C265        N272   1.157       .  T
C266        N273   1.157       .  T
C267        N271   1.158   1_565  T
C268        N274   1.157       .  T
C269        N278   1.157       .  T
C270        N694   1.157       .  T
N276        C688   1.157       .  T
C279        C280   1.411       .  A
C279        C284   1.408       .  A
C279        C297   1.451       .  S
C280        C281   1.411       .  A
C280        C285   1.493       .  S
C281        C282   1.411       .  A
C281        C286   1.450       .  S
C282        C283   1.412       .  A
C282        C298   1.450       .  S
C283        C284   1.413       .  A
C284        C287   1.452       .  S
C285        C288   1.411       .  A
C285        C292   1.410       .  A
C286        N303   1.157       .  T
C287        N305   1.157   1_455  T
C288        C289   1.412       .  A
C288        C293   1.450       .  S
C289        C290   1.413       .  A
C289        C295   1.450       .  S
C290        C291   1.412       .  A
C291        C292   1.407       .  A
C291        C294   1.451       .  S
C292        C296   1.451       .  S
C293        N300   1.157       .  T
C294        N301   1.157       .  T
C295        N717   1.157       .  T
C296        N302   1.157       .  T
C297        N306   1.157       .  T
C298        N304   1.157       .  T
N299        C713   1.157       .  T
C307        C312   1.410       .  A
C307        C726   1.412       .  A
C307        C325   1.450       .  S
C308        C309   1.412       .  A
C308        C725   1.412       .  A
C308        C731   1.496       .  S
C309        C310   1.410       .  A
C309        C314   1.450       .  S
C310        C311   1.411       .  A
C310        C326   1.451       .  S
C311        C730   1.411       .  A
C312        C729   1.411       .  A
C312        C315   1.451       .  S
C313        C320   1.412       .  A
C313        C734   1.412   1_554  A
C313        C726   1.496       .  S
C314        N331   1.157       .  T
C315        N333   1.157       .  T
C316        C317   1.411       .  A
C316        C731   1.412       .  A
C316        C321   1.451       .  S
C317        C736   1.412       .  A
C317        C323   1.451       .  S
C318        C319   1.412       .  A
C318        C735   1.412   1_554  A
C319        C320   1.410       .  A
C319        C322   1.451       .  S
C320        C324   1.450       .  S
C321        N328   1.157       .  T
C322        N329   1.157       .  T
C323        N327   1.157       .  T
C324        N330   1.157       .  T
C325        N334   1.157       .  T
C326        N332   1.157       .  T
C335        C336   1.411       .  A
C335        C340   1.410       .  A
C335        C353   1.450       .  S
C336        C337   1.411       .  A
C336        C341   1.493       .  S
C337        C338   1.409       .  A
C337        C342   1.451       .  S
C338        C339   1.411       .  A
C338        C354   1.450       .  S
C339        C340   1.411       .  A
C340        C343   1.450       .  S
C341        C344   1.411       .  A
C341        C348   1.410       .  A
C342        N359   1.157       .  T
C343        N361   1.157       .  T
C344        C345   1.408       .  A
C344        C349   1.451       .  S
C345        C346   1.413       .  A
C345        C351   1.451       .  S
C346        C347   1.413       .  A
C347        C348   1.410       .  A
C347        C350   1.451       .  S
C348        C352   1.449       .  S
C349        N356   1.157       .  T
C350        N357   1.157       .  T
C351        N355   1.157   1_545  T
C352        N358   1.157       .  T
C353        N362   1.157       .  T
C354        N360   1.157       .  T
C363        C364   1.414       .  A
C363        C368   1.413       .  A
C363        C381   1.450       .  S
C364        C365   1.413       .  A
C364        C369   1.503       .  S
C365        C366   1.411       .  A
C365        C370   1.451       .  S
C366        C367   1.412       .  A
C366        C382   1.450       .  S
C367        C368   1.411       .  A
C368        C371   1.450       .  S
C369        C372   1.413       .  A
C369        C376   1.412       .  A
C370        N387   1.157       .  T
C371        N389   1.157       .  T
C372        C373   1.414       .  A
C372        C377   1.451       .  S
C373        C374   1.416       .  A
C373        C379   1.450       .  S
C374        C375   1.418       .  A
C375        C376   1.412       .  A
C375        C378   1.452       .  S
C376        C380   1.451       .  S
C377        N384   1.157       .  T
C378        N385   1.157       .  T
C379        N383   1.157       .  T
C380        N386   1.157       .  T
C381        N390   1.157       .  T
C382        N388   1.157   1_545  T
C391        C392   1.413       .  A
C391        C396   1.411       .  A
C391        C409   1.450       .  S
C392        C811   1.413       .  A
C392        C815   1.504       .  S
C393        C394   1.414       .  A
C393        C810   1.413   1_554  A
C393        C398   1.450       .  S
C394        C395   1.413   1_554  A
C394        C410   1.450       .  S
C395        C814   1.412       .  A
C396        C813   1.412       .  A
C396        C399   1.450       .  S
C397        C400   1.411   1_556  A
C397        C822   1.410       .  A
C397        C810   1.503       .  S
C398        N415   1.157       .  T
C399        N417   1.157       .  T
C400        C401   1.413       .  A
C400        C405   1.452       .  S
C401        C402   1.420   1_554  A
C401        C407   1.452       .  S
C402        C821   1.421       .  A
C403        C404   1.415       .  A
C403        C820   1.421       .  A
C403        C406   1.451       .  S
C404        C815   1.410       .  A
C404        C408   1.451       .  S
C405        N412   1.157       .  T
C406        N413   1.158       .  T
C407        N411   1.158       .  T
C408        N414   1.157       .  T
C409        N418   1.157       .  T
C410        N416   1.157       .  T
C419        C424   1.403       .  A
C419        C813   1.489       .  S
C420        C421   1.409       .  A
C420        H425   1.083       .  S
C421        C792   1.499       .  S
C422        C423   1.401       .  A
C422        H426   1.083       .  S
C423        C424   1.400       .  A
C423        C757   1.482       .  S
C424        H427   1.085       .  S
C428        C433   1.404   1_554  A
C428        C729   1.483       .  S
C429        C430   1.402       .  A
C429        H434   1.084       .  S
C430        C673   1.483       .  S
C431        C432   1.400       .  A
C431        H435   1.084       .  S
C432        C433   1.402       .  A
C432        C708   1.484       .  S
C433        H436   1.084       .  S
Zn437       O441   1.970       .  S
Zn437       O446   2.014       .  S
Zn437       O453   2.031       .  S
Zn438       O443   2.026       .  S
Zn438       O445   2.007       .  S
Zn438       O449   2.030       .  S
Zn439       O441   1.970       .  S
Zn439       O444   2.020       .  S
Zn439       O450   2.023       .  S
Zn440       O441   1.958       .  S
Zn440       O448   2.009       .  S
Zn440       O451   2.028       .  S
Zn440       O452   2.018       .  S
O442        C454   1.274       .  A
O443        C455   1.274       .  A
O444        C456   1.273       .  A
O445        C454   1.273       .  A
O446        C456   1.272       .  A
O447        C455   1.274       .  A
O448        C457   1.273       .  A
O450        C457   1.274       .  A
O451        C458   1.275       .  A
O452        C459   1.273       .  A
O453        C459   1.275       .  A
C454        C589   1.495       .  S
C455        C645   1.481       .  S
C456        C736   1.480       .  S
C457        C617   1.487       .  S
C458        C820   1.504       .  S
C459        C561   1.481       .  S
C460        C461   1.404       .  A
C460        C465   1.410       .  A
C460        C533   1.492       .  S
C461        C462   1.400       .  A
C461        H466   1.083       .  S
C462        C463   1.399       .  A
C462        C596   1.483       .  S
C463        C464   1.403       .  A
C463        H467   1.085       .  S
C464        C465   1.411       .  A
C464        C568   1.498       .  S
C465        H468   1.083       .  S
C469        C470   1.404       .  A
C469        C474   1.410       .  A
C469        C505   1.490       .  S
C470        C471   1.401       .  A
C470        H475   1.083       .  S
C471        C472   1.397       .  A
C471        C624   1.481       .  S
C472        C473   1.401       .  A
C472        H476   1.086       .  S
C473        C474   1.410       .  A
C473        C652   1.495       .  S
C474        H477   1.083       .  S
Zn478       O482   1.959   1_455  S
Zn478       O483   2.012   1_545  S
Zn478       O487   2.030       .  S
Zn478       O494   2.012   1_455  S
Zn479       O482   1.967   1_465  S
Zn479       O484   2.017       .  S
Zn479       O486   2.024       .  S
Zn479       O490   2.028   1_455  S
Zn480       O482   1.959   1_455  S
Zn480       O485   2.037       .  S
Zn480       O488   2.013   1_545  S
Zn480       O491   2.032   1_455  S
Zn481       O482   1.965       .  S
Zn481       O489   2.017       .  S
Zn481       O492   2.025   1_545  S
Zn481       O493   2.014       .  S
O483        C495   1.272       .  A
O484        C496   1.274       .  A
O485        C497   1.276       .  A
O486        C495   1.274       .  A
O487        C497   1.274       .  A
O488        C496   1.274       .  A
O489        C498   1.273       .  A
O490        C499   1.273       .  A
O491        C498   1.275       .  A
O492        C499   1.272       .  A
O493        C500   1.273       .  A
O494        C500   1.274       .  A
C495        C680   1.503       .  S
C496        C701   1.478       .  S
C497        C540   1.505       .  S
C498        C785   1.484       .  S
C499        C512   1.483       .  S
C500        C764   1.480       .  S
C501        C502   1.411       .  A
C501        C506   1.412       .  A
C501        C519   1.450       .  S
C502        C503   1.412       .  A
C502        C507   1.500       .  S
C503        C504   1.414       .  A
C503        C508   1.450       .  S
C504        C505   1.413       .  A
C504        C520   1.450       .  S
C505        C506   1.412       .  A
C506        C509   1.450       .  S
C507        C510   1.413       .  A
C507        C514   1.412       .  A
C508        N525   1.157       .  T
C509        N527   1.157       .  T
C510        C511   1.413       .  A
C510        C515   1.450       .  S
C511        C512   1.412       .  A
C511        C517   1.450       .  S
C512        C513   1.412       .  A
C513        C514   1.412       .  A
C513        C516   1.451       .  S
C514        C518   1.450       .  S
C515        N522   1.157       .  T
C516        N523   1.157       .  T
C517        N521   1.157       .  T
C518        N524   1.157       .  T
C519        N528   1.157       .  T
C520        N526   1.157       .  T
C529        C530   1.412       .  A
C529        C534   1.414       .  A
C529        C547   1.450       .  S
C530        C531   1.412       .  A
C530        C535   1.503       .  S
C531        C532   1.413       .  A
C531        C536   1.450       .  S
C532        C533   1.413       .  A
C532        C548   1.450       .  S
C533        C534   1.413       .  A
C534        C537   1.450       .  S
C535        C538   1.410       .  A
C535        C542   1.410       .  A
C536        N553   1.157       .  T
C537        N555   1.157       .  T
C538        C539   1.415       .  A
C538        C543   1.451       .  S
C539        C540   1.422       .  A
C539        C545   1.451       .  S
C540        C541   1.421       .  A
C541        C542   1.414       .  A
C541        C544   1.451       .  S
C542        C546   1.451       .  S
C543        N550   1.157       .  T
C544        N551   1.157       .  T
C545        N549   1.158       .  T
C546        N552   1.157       .  T
C547        N556   1.157       .  T
C548        N554   1.157       .  T
C557        C558   1.413       .  A
C557        C562   1.412       .  A
C557        C575   1.450       .  S
C558        C559   1.414       .  A
C558        C563   1.502       .  S
C559        C560   1.412       .  A
C559        C564   1.451       .  S
C560        C561   1.412       .  A
C560        C576   1.451       .  S
C561        C562   1.410       .  A
C562        C565   1.451       .  S
C563        C566   1.411       .  A
C563        C570   1.412       .  A
C564        N581   1.157       .  T
C565        N583   1.157       .  T
C566        C567   1.413       .  A
C566        C571   1.451       .  S
C567        C568   1.418       .  A
C567        C573   1.451       .  S
C568        C569   1.415       .  A
C569        C570   1.413       .  A
C569        C572   1.449       .  S
C570        C574   1.451       .  S
C571        N578   1.157       .  T
C572        N579   1.157       .  T
C573        N577   1.157       .  T
C574        N580   1.157       .  T
C575        N584   1.157       .  T
C576        N582   1.157       .  T
C585        C586   1.408       .  A
C585        C590   1.409       .  A
C585        C603   1.452       .  S
C586        C587   1.409       .  A
C586        C591   1.494       .  S
C587        C588   1.413       .  A
C587        C592   1.450       .  S
C588        C589   1.419       .  A
C588        C604   1.451       .  S
C589        C590   1.420       .  A
C590        C593   1.452       .  S
C591        C594   1.411       .  A
C591        C598   1.411       .  A
C592        N609   1.157       .  T
C593        N611   1.157       .  T
C594        C595   1.410       .  A
C594        C599   1.450       .  S
C595        C596   1.411       .  A
C595        C601   1.450       .  S
C596        C597   1.411       .  A
C597        C598   1.410       .  A
C597        C600   1.450       .  S
C598        C602   1.450       .  S
C599        N606   1.157       .  T
C600        N607   1.157       .  T
C601        N605   1.157       .  T
C602        N608   1.157       .  T
C603        N612   1.157       .  T
C604        N610   1.157       .  T
C613        C614   1.410       .  A
C613        C618   1.412       .  A
C613        C631   1.450       .  S
C614        C615   1.410       .  A
C614        C619   1.494       .  S
C615        C616   1.409       .  A
C615        C620   1.452       .  S
C616        C617   1.417       .  A
C616        C632   1.452       .  S
C617        C618   1.415       .  A
C618        C621   1.450       .  S
C619        C622   1.411       .  A
C619        C626   1.412       .  A
C620        N637   1.157       .  T
C621        N639   1.157       .  T
C622        C623   1.409       .  A
C622        C627   1.450       .  S
C623        C624   1.412       .  A
C623        C629   1.451       .  S
C624        C625   1.411       .  A
C625        C626   1.410       .  A
C625        C628   1.450       .  S
C626        C630   1.451       .  S
C627        N634   1.157       .  T
C628        N635   1.157       .  T
C629        N633   1.157       .  T
C630        N636   1.157       .  T
C631        N640   1.157       .  T
C632        N638   1.157       .  T
C641        C642   1.412       .  A
C641        C646   1.411       .  A
C641        C659   1.450       .  S
C642        C643   1.412       .  A
C642        C647   1.499       .  S
C643        C644   1.413       .  A
C643        C648   1.450       .  S
C644        C645   1.412       .  A
C644        C660   1.451       .  S
C645        C646   1.410       .  A
C646        C649   1.450       .  S
C647        C650   1.410       .  A
C647        C654   1.411       .  A
C648        N665   1.157       .  T
C649        N667   1.157       .  T
C650        C651   1.410       .  A
C650        C655   1.451       .  S
C651        C652   1.417       .  A
C651        C657   1.452       .  S
C652        C653   1.415       .  A
C653        C654   1.414       .  A
C653        C656   1.449       .  S
C654        C658   1.450       .  S
C655        N662   1.157       .  T
C656        N663   1.157       .  T
C657        N661   1.157       .  T
C658        N664   1.157       .  T
C659        N668   1.157       .  T
C660        N666   1.157       .  T
C669        C670   1.411       .  A
C669        C674   1.410       .  A
C669        C687   1.450       .  S
C670        C671   1.411       .  A
C670        C675   1.494       .  S
C671        C672   1.409       .  A
C671        C676   1.450       .  S
C672        C673   1.412       .  A
C672        C688   1.451       .  S
C673        C674   1.412       .  A
C674        C677   1.451       .  S
C675        C678   1.407       .  A
C675        C682   1.407       .  A
C676        N693   1.157       .  T
C677        N695   1.157       .  T
C678        C679   1.411       .  A
C678        C683   1.452       .  S
C679        C680   1.425       .  A
C679        C685   1.452       .  S
C680        C681   1.423       .  A
C681        C682   1.411       .  A
C681        C684   1.451       .  S
C682        C686   1.451       .  S
C683        N690   1.157       .  T
C684        N691   1.157       .  T
C685        N689   1.158   1_565  T
C686        N692   1.157       .  T
C687        N696   1.157       .  T
C697        C698   1.411       .  A
C697        C702   1.408       .  A
C697        C715   1.451       .  S
C698        C699   1.411       .  A
C698        C703   1.492       .  S
C699        C700   1.411       .  A
C699        C704   1.450       .  S
C700        C701   1.412       .  A
C700        C716   1.450       .  S
C701        C702   1.412       .  A
C702        C705   1.452       .  S
C703        C706   1.411       .  A
C703        C710   1.410       .  A
C704        N721   1.157       .  T
C705        N723   1.157   1_455  T
C706        C707   1.411       .  A
C706        C711   1.450       .  S
C707        C708   1.413       .  A
C707        C713   1.450       .  S
C708        C709   1.413       .  A
C709        C710   1.407       .  A
C709        C712   1.451       .  S
C710        C714   1.451       .  S
C711        N718   1.157       .  T
C712        N719   1.157       .  T
C714        N720   1.157       .  T
C715        N724   1.157       .  T
C716        N722   1.157       .  T
C725        C730   1.410       .  A
C725        C743   1.450       .  S
C726        C727   1.412   1_554  A
C727        C728   1.410       .  A
C727        C732   1.450       .  S
C728        C729   1.411   1_556  A
C728        C744   1.451       .  S
C730        C733   1.451       .  S
C731        C738   1.412       .  A
C732        N749   1.157       .  T
C733        N751   1.157       .  T
C734        C735   1.411       .  A
C734        C739   1.451       .  S
C735        C741   1.451       .  S
C736        C737   1.412       .  A
C737        C738   1.410       .  A
C737        C740   1.451       .  S
C738        C742   1.450       .  S
C739        N746   1.157       .  T
C740        N747   1.157       .  T
C741        N745   1.157       .  T
C742        N748   1.157       .  T
C743        N752   1.157       .  T
C744        N750   1.157       .  T
C753        C754   1.411       .  A
C753        C758   1.410       .  A
C753        C771   1.450       .  S
C754        C755   1.411       .  A
C754        C759   1.493       .  S
C755        C756   1.409       .  A
C755        C760   1.451       .  S
C756        C757   1.411       .  A
C756        C772   1.450       .  S
C757        C758   1.411       .  A
C758        C761   1.450       .  S
C759        C762   1.411       .  A
C759        C766   1.410       .  A
C760        N777   1.157       .  T
C761        N779   1.157       .  T
C762        C763   1.408       .  A
C762        C767   1.451       .  S
C763        C764   1.413       .  A
C763        C769   1.451       .  S
C764        C765   1.413       .  A
C765        C766   1.411       .  A
C765        C768   1.451       .  S
C766        C770   1.449       .  S
C767        N774   1.157       .  T
C768        N775   1.157       .  T
C769        N773   1.157   1_545  T
C770        N776   1.157       .  T
C771        N780   1.157       .  T
C772        N778   1.157       .  T
C781        C782   1.414       .  A
C781        C786   1.413       .  A
C781        C799   1.450       .  S
C782        C783   1.413       .  A
C782        C787   1.503       .  S
C783        C784   1.411       .  A
C783        C788   1.451       .  S
C784        C785   1.412       .  A
C784        C800   1.450       .  S
C785        C786   1.411       .  A
C786        C789   1.450       .  S
C787        C790   1.413       .  A
C787        C794   1.412       .  A
C788        N805   1.157       .  T
C789        N807   1.157       .  T
C790        C791   1.414       .  A
C790        C795   1.451       .  S
C791        C792   1.416       .  A
C791        C797   1.450       .  S
C792        C793   1.418       .  A
C793        C794   1.412       .  A
C793        C796   1.452       .  S
C794        C798   1.451       .  S
C795        N802   1.157       .  T
C796        N803   1.157       .  T
C797        N801   1.157       .  T
C798        N804   1.157       .  T
C799        N808   1.157       .  T
C800        N806   1.157   1_545  T
C809        C810   1.413       .  A
C809        C814   1.411       .  A
C809        C827   1.450       .  S
C811        C812   1.414       .  A
C811        C816   1.450       .  S
C812        C813   1.413       .  A
C812        C828   1.450       .  S
C814        C817   1.450       .  S
C815        C818   1.411       .  A
C816        N833   1.157       .  T
C817        N835   1.157       .  T
C818        C819   1.413       .  A
C818        C823   1.452       .  S
C819        C820   1.421       .  A
C819        C825   1.452       .  S
C821        C822   1.415       .  A
C821        C824   1.451       .  S
C822        C826   1.451       .  S
C823        N830   1.157       .  T
C824        N831   1.158       .  T
C825        N829   1.158       .  T
C826        N832   1.157       .  T
C827        N836   1.157       .  T
C828        N834   1.157       .  T
