geometry optimzed in LAMMPS
_audit_creation_date              2020-11-30 
_audit_creation_method            'lammps2cif' 
_symmetry_space_group_name_H-M    'P1' 
_symmetry_Int_Tables_number       1 
_symmetry_cell_setting            triclinic 
loop_ 
_symmetry_equiv_pos_as_xyz 
  x,y,z 
_cell_length_a                    40.10039394 
_cell_length_b                    41.51700808138733 
_cell_length_c                    43.203921756660776 
_cell_angle_alpha                 91.03063926296046 
_cell_angle_beta                  88.23374327393128 
_cell_angle_gamma                 89.69716509568902 
loop_ 
_atom_site_label 
_atom_site_type_symbol 
_atom_site_fract_x 
_atom_site_fract_y 
_atom_site_fract_z 
_atom_site_charge 
C1          C  0.41430512  0.17062236  0.03366784     0.30500
C2          C  0.40991269  0.16243942  0.47112133     0.30500
C3          C  0.38176839  0.18210153  0.01983190    -0.05700
C4          C  0.44147259  0.18738657  0.01378440    -0.06500
C5          C  0.41771957  0.13537053  0.02172908    -0.06400
C6          C  0.37957695  0.17820963  0.48773761    -0.05700
C7          C  0.43917068  0.18294970  0.48203754    -0.06500
C8          C  0.41549691  0.13115094  0.48910639    -0.06400
C9          C  0.35796301  0.20176662  0.47821246    -0.31800
N10         N  0.34647766  0.21892766  0.50329281     0.14700
C11         C  0.36105539  0.20740252  0.02864890    -0.31800
H12         H  0.35968070  0.21896836  0.05130593     0.16700
C13         C  0.46617618  0.19768560  0.46820457    -0.30700
N14         N  0.48447386  0.21200906  0.99045625     0.13500
C15         C  0.46982690  0.20532753  0.01847295    -0.30700
C16         C  0.43852914  0.10739756  0.48066599    -0.31000
N17         N  0.45402072  0.09695493  0.50584431     0.14000
H18         H  0.44774076  0.10247935  0.45722106     0.16600
C19         C  0.44169421  0.11364747  0.03075710    -0.31000
H20         H  0.45364542  0.11438069  0.05287596     0.16600
H21         H  0.47870941  0.21348725  0.04063616     0.16600
H22         H  0.35361895  0.20808186  0.45447928     0.16700
H23         H  0.47215816  0.19778794  0.44365443     0.16600
C24         C  0.42128521  0.17068222  0.22139704     0.30500
C25         C  0.42264086  0.17461209  0.28434192     0.30500
C26         C  0.43175285  0.13954552  0.23759990    -0.05700
C27         C  0.44614154  0.19544302  0.23450428    -0.06500
C28         C  0.38821209  0.18019209  0.23791382    -0.06400
C29         C  0.43226969  0.14145761  0.27011850    -0.05700
C30         C  0.44684656  0.19701573  0.26680359    -0.06500
C31         C  0.38889614  0.18239839  0.27037915    -0.06400
C32         C  0.45742424  0.12078163  0.27877064    -0.31800
N33         N  0.47148687  0.10608287  0.25333446     0.14700
C34         C  0.45660317  0.11788725  0.22825156    -0.31800
H35         H  0.46596442  0.11423944  0.20466471     0.16700
C36         C  0.47472964  0.21408128  0.27454126    -0.30700
N37         N  0.49041216  0.22406384  0.24821958     0.13500
C38         C  0.47349136  0.21257815  0.22355498    -0.30700
C39         C  0.36681007  0.20678013  0.27938461    -0.31000
N40         N  0.35293116  0.21916571  0.25409403     0.14000
H41         H  0.36503345  0.21801027  0.30219088     0.16600
C42         C  0.36585867  0.20331043  0.22888296    -0.31000
H43         H  0.36326696  0.21131913  0.20536280     0.16600
H44         H  0.48185504  0.21474170  0.19964333     0.16600
H45         H  0.46761824  0.11980481  0.30164256     0.16700
H46         H  0.48379001  0.21798626  0.29763273     0.16600
C47         C  0.16082206  0.17492839  0.03081608     0.30500
C48         C  0.15901673  0.17772745  0.46792392     0.30500
C49         C  0.16970009  0.20762485  0.01708882    -0.05700
C50         C  0.18484079  0.15151728  0.01271881    -0.06500
C51         C  0.12715686  0.16663004  0.01675331    -0.06400
C52         C  0.16900365  0.20914692  0.48460705    -0.05700
C53         C  0.18375133  0.15297875  0.48047834    -0.06500
C54         C  0.12612166  0.16773036  0.48440327    -0.06400
C55         C  0.19366152  0.23071958  0.47592980    -0.31800
N56         N  0.20853390  0.24250197  0.50140355     0.14700
C57         C  0.19440603  0.22839041  0.02642331    -0.31800
H58         H  0.20438123  0.22978020  0.04940109     0.16700
C59         C  0.20559966  0.13000344  0.46828972    -0.30700
N60         N  0.22024884  0.11480737  0.99203926     0.13500
C61         C  0.20752010  0.12765464  0.01919436    -0.30700
C62         C  0.10426329  0.14355001  0.47574133    -0.31000
N63         N  0.09123454  0.12932461  0.50120830     0.14000
H64         H  0.10165638  0.13401934  0.45245613     0.16600
C65         C  0.10559784  0.14261100  0.02605341    -0.31000
H66         H  0.10428307  0.13230865  0.04890537     0.16600
H67         H  0.21374474  0.11965447  0.04200157     0.16600
H68         H  0.20284703  0.23452697  0.45247515     0.16700
H69         H  0.21060475  0.12481619  0.44397085     0.16600
C70         C  0.17734126  0.18107565  0.28074726     0.30500
C71         C  0.17925750  0.17881771  0.21753791     0.30500
C72         C  0.18597251  0.21285172  0.26482197    -0.05700
C73         C  0.20211542  0.15704868  0.26544566    -0.06500
C74         C  0.14432344  0.17077095  0.26596632    -0.06400
C75         C  0.18725257  0.21170303  0.23239090    -0.05700
C76         C  0.20322980  0.15584342  0.23335148    -0.06500
C77         C  0.14525940  0.16964324  0.23313164    -0.06400
C78         C  0.20981883  0.23504924  0.22313201    -0.31800
N79         N  0.22128777  0.25072627  0.24842086     0.14700
C80         C  0.20712592  0.23715897  0.27381781    -0.31800
H81         H  0.21506990  0.24170390  0.29719985     0.16700
C82         C  0.22774127  0.13396283  0.22443207    -0.30700
N83         N  0.24184999  0.12269877  0.25027593     0.13500
C84         C  0.22573508  0.13594183  0.27539954    -0.30700
C85         C  0.12396716  0.14491135  0.22473180    -0.31000
N86         N  0.10985928  0.13167918  0.25031274     0.14000
H87         H  0.12237152  0.13443535  0.20171689     0.16600
C88         C  0.12277581  0.14649701  0.27529793    -0.31000
H89         H  0.12024354  0.13730496  0.29852655     0.16600
H90         H  0.23118822  0.13071090  0.29915859     0.16600
H91         H  0.22032342  0.23753759  0.19992826     0.16700
H92         H  0.23560605  0.12740102  0.20100674     0.16600
C93         C  0.41867779  0.41845042  0.03494025     0.30500
C94         C  0.42217401  0.41864383  0.47179621     0.30500
C95         C  0.40983352  0.38649126  0.01881094    -0.05700
C96         C  0.39564628  0.44286867  0.01952901    -0.06500
C97         C  0.45298675  0.42740533  0.02070750    -0.06400
C98         C  0.41133191  0.38658671  0.48623560    -0.05700
C99         C  0.39726210  0.44318468  0.48720855    -0.06500
C100        C  0.45470086  0.42723400  0.48814153    -0.06400
C101        C  0.38655106  0.36574527  0.47671692    -0.31800
N102        N  0.37113903  0.35252547  0.50175810     0.14700
C103        C  0.38495375  0.36517388  0.02732951    -0.31800
H104        H  0.37477420  0.36222567  0.05058802     0.16700
C105        C  0.37696016  0.46835196  0.47849385    -0.30700
N106        N  0.36288925  0.48260211  0.00437705     0.13500
C107        C  0.37458622  0.46744452  0.02947456    -0.30700
C108        C  0.47691577  0.45105542  0.47968212    -0.31000
N109        N  0.48874710  0.46566234  0.50518690     0.14000
H110        H  0.48019013  0.46033098  0.45653121     0.16600
C111        C  0.47391651  0.45203293  0.03018331    -0.31000
H112        H  0.47438394  0.46236109  0.05336309     0.16600
H113        H  0.36849714  0.47411066  0.05330084     0.16600
H114        H  0.37767755  0.36359856  0.45336055     0.16700
H115        H  0.37375578  0.47691847  0.45531771     0.16600
C116        C  0.42743739  0.42631584  0.28355190     0.30500
C117        C  0.43608982  0.41863733  0.22092378     0.30500
C118        C  0.42166064  0.39215458  0.27058295    -0.05700
C119        C  0.40518032  0.44747754  0.26371138    -0.06500
C120        C  0.46261279  0.43472536  0.27052078    -0.06400
C121        C  0.42622868  0.38823706  0.23841143    -0.05700
C122        C  0.40959527  0.44328589  0.23190164    -0.06500
C123        C  0.46706269  0.43098546  0.23795390    -0.06400
C124        C  0.40536545  0.36373955  0.22939300    -0.31800
N125        N  0.38844609  0.35265379  0.25450212     0.14700
C126        C  0.39789026  0.36995661  0.27956612    -0.31800
H127        H  0.38483259  0.36986131  0.30188491     0.16700
C128        C  0.39277403  0.46770040  0.21799489    -0.30700
N129        N  0.37788400  0.48643295  0.24036270     0.13500
C130        C  0.38623945  0.47504853  0.26833338    -0.30700
C131        C  0.48899392  0.45500241  0.22885900    -0.31000
N132        N  0.49888106  0.47199479  0.25395715     0.14000
H133        H  0.49406477  0.46212176  0.20521423     0.16600
C134        C  0.48251354  0.46030745  0.27917543    -0.31000
H135        H  0.48158370  0.47223293  0.30167083     0.16600
H136        H  0.37960778  0.48655928  0.29033323     0.16600
H137        H  0.39931707  0.35778236  0.20573623     0.16700
H138        H  0.39256249  0.47250351  0.19348972     0.16600
C139        C  0.16035950  0.42230047  0.46841182     0.30500
C140        C  0.15907605  0.42272848  0.03160031     0.30500
C141        C  0.15543351  0.45560662  0.48454735    -0.05700
C142        C  0.13308588  0.40149433  0.48374641    -0.06500
C143        C  0.19235380  0.40926566  0.48335931    -0.06400
C144        C  0.15449383  0.45551277  0.01700936    -0.05700
C145        C  0.13255735  0.40162582  0.01617819    -0.06500
C146        C  0.19162556  0.41023062  0.01598298    -0.06400
C147        C  0.13379468  0.48043293  0.02692952    -0.31800
N148        N  0.12272263  0.49604777  0.50205979     0.14700
C149        C  0.13607917  0.48153872  0.47630314    -0.31800
H150        H  0.12835835  0.48681227  0.45317919     0.16700
C151        C  0.11960624  0.37239216  0.02504229    -0.30700
N152        N  0.11109969  0.35492745  0.99971000     0.13500
C153        C  0.12015727  0.37217368  0.47442042    -0.30700
C154        C  0.21389027  0.38746623  0.02573460    -0.31000
N155        N  0.22842472  0.37279907  0.50066960     0.14000
H156        H  0.21671239  0.37976825  0.04932014     0.16600
C157        C  0.21412374  0.38421611  0.47512553    -0.31000
H158        H  0.21662317  0.37212034  0.45284105     0.16600
H159        H  0.12034646  0.36300735  0.45081955     0.16600
H160        H  0.12330643  0.48350438  0.05019667     0.16700
H161        H  0.11855762  0.36381420  0.04849576     0.16600
C162        C  0.18048293  0.42172192  0.27998901     0.30500
C163        C  0.18343108  0.42606652  0.21668350     0.30500
C164        C  0.21653322  0.42097888  0.26447793    -0.05700
C165        C  0.16193034  0.39538000  0.26168643    -0.06500
C166        C  0.16616802  0.45319509  0.26657179    -0.06400
C167        C  0.21719927  0.42090423  0.23165669    -0.05700
C168        C  0.16360256  0.39776116  0.22962585    -0.06500
C169        C  0.16803172  0.45500918  0.23436733    -0.06400
C170        C  0.24117404  0.39825028  0.22215383    -0.31800
N171        N  0.25687799  0.38709850  0.24694978     0.14700
C172        C  0.24404953  0.40273775  0.27214550    -0.31800
H173        H  0.25326240  0.39900201  0.29498918     0.16700
C174        C  0.14406664  0.37394689  0.21750718    -0.30700
N175        N  0.12955502  0.35761929  0.24114978     0.13500
C176        C  0.14051586  0.37022394  0.26832649    -0.30700
C177        C  0.14815910  0.48023107  0.22582275    -0.31000
N178        N  0.13436995  0.49436638  0.25167493     0.14000
H179        H  0.14164898  0.48586871  0.20238450     0.16600
C180        C  0.14566875  0.47861947  0.27670190    -0.31000
H181        H  0.13745485  0.48418660  0.30019301     0.16600
H182        H  0.13193062  0.36301345  0.29114635     0.16600
H183        H  0.24272672  0.38670376  0.19946270     0.16700
H184        H  0.13961742  0.36937953  0.19325682     0.16600
O185        O  0.99818526  0.07192041  0.03047328    -0.74000
O186        O  0.08046087  0.02530208  0.02849157    -0.74000
O187        O  0.06351906  0.08826314  0.02802837    -0.74000
O188        O  0.01530448  0.00880955  0.03049954    -0.74100
O189        O  0.01590197  0.00746663  0.47886181    -0.74000
O190        O  0.06335018  0.08704531  0.47640501    -0.74000
O191        O  0.08083958  0.02414820  0.47684559    -0.74000
O192        O  0.99803114  0.07028398  0.47885058    -0.74000
Ni193      Ni  0.03937488  0.04868413  0.03121355     1.25400
Ni194      Ni  0.03951293  0.04721971  0.47590026     1.25400
C195        C  0.98447471  0.07874640  0.50502977     0.88200
C196        C  0.09398929  0.01666870  0.50241858     0.88200
C197        C  0.07173314  0.10052254  0.50185517     0.88200
C198        C  0.00762073  0.99505563  0.50490455     0.88400
O199        O  0.09357470  0.02669389  0.27774076    -0.74000
O200        O  0.01398025  0.07851216  0.27840830    -0.74000
O201        O  0.02717670  0.01435830  0.27884707    -0.74000
O202        O  0.08048770  0.09112883  0.27701542    -0.74100
O203        O  0.08097100  0.08976243  0.22542165    -0.74000
O204        O  0.02823557  0.01263744  0.22724073    -0.74000
O205        O  0.01445311  0.07688635  0.22680774    -0.74000
O206        O  0.09454863  0.02545488  0.22613242    -0.74000
Ni207      Ni  0.05380686  0.05277816  0.27979780     1.25400
Ni208      Ni  0.05459233  0.05116554  0.22455842     1.25400
C209        C  0.10686726  0.01699191  0.25185557     0.88200
C210        C  0.00105643  0.08627570  0.25280801     0.88200
C211        C  0.01893695  0.00078695  0.25331441     0.88200
C212        C  0.08959173  0.10311168  0.25093048     0.88400
O213        O  0.26033904  0.33538522  0.02714155    -0.74000
O214        O  0.31644765  0.26083145  0.02831393    -0.74000
O215        O  0.32748059  0.32508748  0.02752269    -0.74000
O216        O  0.24981572  0.27133458  0.02746514    -0.74100
O217        O  0.25195623  0.27007945  0.47582629    -0.74000
O218        O  0.32978162  0.32342061  0.47590636    -0.74000
O219        O  0.31847522  0.25908471  0.47666474    -0.74000
O220        O  0.26267767  0.33396813  0.47549511    -0.74000
Ni221      Ni  0.28851426  0.29827216  0.02946307     1.25400
Ni222      Ni  0.29088868  0.29664110  0.47415190     1.25400
C223        C  0.25148017  0.34640023  0.50113593     0.88200
C224        C  0.32634017  0.24742721  0.50271741     0.88200
C225        C  0.34164495  0.33290578  0.50170210     0.88200
C226        C  0.23792257  0.26208949  0.50157358     0.88400
O227        O  0.32524839  0.26322711  0.27856883    -0.74000
O228        O  0.27949470  0.34433527  0.27455576    -0.74000
O229        O  0.26075906  0.28109670  0.27510408    -0.74000
O230        O  0.34353746  0.32610997  0.27858552    -0.74100
O231        O  0.34806589  0.32428024  0.22700910    -0.74000
O232        O  0.26507928  0.27889648  0.22354641    -0.74000
O233        O  0.28370047  0.34227518  0.22299003    -0.74000
O234        O  0.32958136  0.26155315  0.22698448    -0.74000
Ni235      Ni  0.30200930  0.30377698  0.27853878     1.25400
Ni236      Ni  0.30673620  0.30170206  0.22330717     1.25400
C237        C  0.33497265  0.24904454  0.25324371     0.88200
C238        C  0.27452535  0.35695483  0.24816494     0.88200
C239        C  0.24984649  0.27149678  0.24895606     0.88200
C240        C  0.35912308  0.33317167  0.25334424     0.88400
C241        C  0.17812462  0.41705601  0.31549569    -0.04800
C242        C  0.20029751  0.39600616  0.32979397    -0.04700
C243        C  0.20486306  0.39757484  0.36158677    -0.22900
C244        C  0.18186097  0.41441307  0.38063376     0.19400
C245        C  0.15327282  0.42756595  0.36744628     0.16600
C246        C  0.15192680  0.42985887  0.33482184    -0.17900
C247        C  0.12641740  0.43698351  0.38715158    -0.19700
C248        C  0.12842165  0.43340158  0.41931937    -0.12300
C249        C  0.15845120  0.42373337  0.43288173     0.04400
C250        C  0.18553464  0.41544436  0.41280100    -0.24400
H251        H  0.21328979  0.37716948  0.31683247     0.09500
H252        H  0.22451931  0.38346463  0.37145080     0.13100
H253        H  0.12997728  0.43983412  0.32484819     0.13000
H254        H  0.10351699  0.44589103  0.37771701     0.12800
H255        H  0.10653391  0.43888294  0.43375399     0.13300
H256        H  0.20958944  0.40974741  0.42144943     0.15300
C257        C  0.15784320  0.42430502  0.06700815    -0.04800
C258        C  0.12749708  0.42016650  0.08378053    -0.04700
C259        C  0.12626472  0.42125761  0.11611086    -0.22900
C260        C  0.15528032  0.42697766  0.13249187     0.19400
C261        C  0.18555933  0.43286677  0.11608702     0.16600
C262        C  0.18647343  0.43231211  0.08354842    -0.17900
C263        C  0.21446619  0.43893029  0.13255041    -0.19700
C264        C  0.21378137  0.43734204  0.16484936    -0.12300
C265        C  0.18412606  0.42968132  0.18147853     0.04400
C266        C  0.15455267  0.42656292  0.16497755    -0.24400
H267        H  0.10443498  0.41628238  0.07192969     0.03900
H268        H  0.10266650  0.41729232  0.12829797     0.13100
H269        H  0.20964952  0.43751790  0.07112471     0.13000
H270        H  0.23778916  0.44431606  0.12042921     0.12800
H271        H  0.23660571  0.44229028  0.17667619     0.13300
H272        H  0.13102627  0.42296657  0.17741193     0.15300
C273        C  0.42163598  0.42864739  0.31884362    -0.04800
C274        C  0.38994588  0.43688145  0.33190097    -0.04700
C275        C  0.38382386  0.43720103  0.36392298    -0.22900
C276        C  0.40858201  0.42739183  0.38387423     0.19400
C277        C  0.43983883  0.41709795  0.37123625     0.16600
C278        C  0.44624222  0.41791959  0.33894920    -0.17900
C279        C  0.46375601  0.40518545  0.39106773    -0.19700
C280        C  0.45714881  0.40448949  0.42303605    -0.12300
C281        C  0.42699349  0.41690107  0.43632731     0.04400
C282        C  0.40220529  0.42687125  0.41614245    -0.24400
H283        H  0.36911042  0.44182652  0.31747822     0.09500
H284        H  0.35931021  0.44419748  0.37300803     0.13100
H285        H  0.47010704  0.40955635  0.32939928     0.13000
H286        H  0.48758504  0.39630992  0.38187555     0.12800
H287        H  0.47621523  0.39490698  0.43756501     0.13300
H288        H  0.37766707  0.43336738  0.42521211     0.15300
C289        C  0.43867168  0.41348059  0.18573813    -0.04800
C290        C  0.46946455  0.40771552  0.17014880    -0.04700
C291        C  0.47153941  0.40563108  0.13774273    -0.22900
C292        C  0.44288135  0.40959469  0.12028336     0.19400
C293        C  0.41153900  0.41307099  0.13568547     0.16600
C294        C  0.40952625  0.41362084  0.16815809    -0.17900
C295        C  0.38280093  0.41661774  0.11837313    -0.19700
C296        C  0.38527841  0.41815397  0.08610439    -0.12300
C297        C  0.41652748  0.41661106  0.07034172     0.04400
C298        C  0.44510268  0.41064533  0.08776909    -0.24400
H299        H  0.49206467  0.40513839  0.18294989     0.09500
H300        H  0.49571614  0.40194523  0.12632820     0.13100
H301        H  0.38522841  0.41550482  0.17974741     0.13000
H302        H  0.35842718  0.41873002  0.12980552     0.12800
H303        H  0.36258093  0.42053567  0.07341807     0.13300
H304        H  0.46919392  0.40704660  0.07620213     0.15300
C305        C  0.35504810  0.01255083  0.23520190    -0.04800
C306        C  0.33411853  0.51080427  0.20970931    -0.04700
C307        C  0.30871520  0.03359857  0.20666420    -0.22900
C308        C  0.30372354  0.05787972  0.22920259     0.19400
C309        C  0.32561001  0.06051547  0.25417180     0.16600
C310        C  0.35136359  0.03802051  0.25682862    -0.17900
C311        C  0.32057856  0.08485368  0.27667964    -0.19700
C312        C  0.29322289  0.10551384  0.27517064    -0.12300
C313        C  0.27063792  0.10221330  0.25105567     0.04400
C314        C  0.27650190  0.07883067  0.22774399    -0.24400
H315        H  0.33631666  0.49121253  0.19288371     0.09500
H316        H  0.29227012  0.53119094  0.18734699     0.13100
H317        H  0.36782562  0.03971883  0.27619324     0.13000
H318        H  0.33738029  0.08751201  0.29573568     0.12800
H319        H  0.28972372  0.12411070  0.29285159     0.13300
H320        H  0.25919648  0.07616830  0.20910142     0.15300
C321        C  0.34002344  0.01003924  0.00519478    -0.04800
C322        C  0.33984636  0.53180777  0.03024083    -0.04700
C323        C  0.31696076  0.05768342  0.03204309    -0.22900
C324        C  0.29323120  0.06122767  0.00919195     0.19400
C325        C  0.29310005  0.03927027  0.98381532     0.16600
C326        C  0.31655522  0.01388691  0.48189323    -0.17900
C327        C  0.26916965  0.04286748  0.46106136    -0.19700
C328        C  0.24544374  0.06773931  0.46362035    -0.12300
C329        C  0.24511534  0.08950743  0.98900384     0.04400
C330        C  0.26941689  0.08616906  0.01155065    -0.24400
H331        H  0.35783177  0.52971729  0.04827000     0.09500
H332        H  0.31749676  0.57398638  0.05158582     0.13100
H333        H  0.31602469  0.99668259  0.46276182     0.13000
H334        H  0.26861289  0.02627204  0.44143840     0.12800
H335        H  0.22694242  0.06956250  0.44601127     0.13300
H336        H  0.26988174  0.10307836  0.03090626     0.15300
C337        C  0.15697934  0.18094106  0.43276244    -0.04800
C338        C  0.12597278  0.18564863  0.41880837    -0.04700
C339        C  0.12362767  0.18669365  0.38671905    -0.22900
C340        C  0.15238323  0.18474510  0.36769018     0.19400
C341        C  0.18392439  0.18311108  0.38130172     0.16600
C342        C  0.18606685  0.18124995  0.41366503    -0.17900
C343        C  0.21275549  0.18374072  0.36228177    -0.19700
C344        C  0.21024091  0.18462494  0.33015427    -0.12300
C345        C  0.17895069  0.18316358  0.31608380     0.04400
C346        C  0.15005028  0.18482156  0.33531309    -0.24400
H347        H  0.10316679  0.18861982  0.43257647     0.09500
H348        H  0.09927241  0.18919749  0.37681154     0.13100
H349        H  0.21031379  0.17990324  0.42395035     0.13000
H350        H  0.23724030  0.18360418  0.37221027     0.12800
H351        H  0.23304645  0.18582594  0.31616802     0.13300
H352        H  0.12573492  0.18667788  0.32530458     0.15300
C353        C  0.15953802  0.17573900  0.06633818    -0.04800
C354        C  0.12926348  0.18372369  0.08237036    -0.04700
C355        C  0.12698041  0.18489494  0.11455872    -0.22900
C356        C  0.15539716  0.18042227  0.13182802     0.19400
C357        C  0.18660988  0.17537327  0.11637094     0.16600
C358        C  0.18851257  0.17271653  0.08374316    -0.17900
C359        C  0.21538929  0.17415059  0.13387588    -0.19700
C360        C  0.21299111  0.17688268  0.16622024    -0.12300
C361        C  0.18167426  0.17855817  0.18204296     0.04400
C362        C  0.15307441  0.18177600  0.16432002    -0.24400
H363        H  0.10690805  0.18928186  0.07009487     0.09500
H364        H  0.10302362  0.19000754  0.12592491     0.13100
H365        H  0.21251210  0.16919816  0.07198129     0.13000
H366        H  0.23977838  0.17160277  0.12257465     0.12800
H367        H  0.23582828  0.17743156  0.17887989     0.13300
H368        H  0.12895768  0.18595968  0.17567877     0.15300
C369        C  0.10319218  0.33460356  0.23750638    -0.04800
C370        C  0.07854199  0.33993919  0.21565950    -0.04700
C371        C  0.05227009  0.31837559  0.21223544    -0.22900
C372        C  0.05021852  0.29087462  0.23048147     0.19400
C373        C  0.07531326  0.28483362  0.25205083     0.16600
C374        C  0.10156258  0.30684015  0.25554156    -0.17900
C375        C  0.07332023  0.25718274  0.27012893    -0.19700
C376        C  0.04599110  0.23660343  0.26795326    -0.12300
C377        C  0.02036918  0.24300637  0.24738797     0.04400
C378        C  0.02305839  0.26978442  0.22812319    -0.24400
H379        H  0.07922435  0.36132172  0.20166908     0.09500
H380        H  0.03333654  0.32343466  0.19560185     0.13100
H381        H  0.12070363  0.30246087  0.27216908     0.13000
H382        H  0.09249637  0.25185504  0.28646557     0.12800
H383        H  0.04451751  0.21583071  0.28271077     0.13300
H384        H  0.50324693  0.27492886  0.21238495     0.15300
C385        C  0.09571535  0.32346951  0.99998310    -0.04800
C386        C  0.09649641  0.30426521  0.52655272    -0.04700
C387        C  0.07717129  0.27647661  0.52889252    -0.22900
C388        C  0.05663644  0.26722320  0.50472525     0.19400
C389        C  0.05753975  0.28482665  0.97702333     0.16600
C390        C  0.07718674  0.31263701  0.97472792    -0.17900
C391        C  0.03730528  0.27538939  0.95271070    -0.19700
C392        C  0.01451874  0.25041964  0.95664378    -0.12300
C393        C  0.01171779  0.23401487  0.98488567     0.04400
C394        C  0.03403804  0.24172734  0.50837264    -0.24400
H395        H  0.11142378  0.31097665  0.54600985     0.09500
H396        H  0.07738717  0.26289603  0.55007910     0.13100
H397        H  0.07627616  0.32687327  0.95401075     0.13000
H398        H  0.03792108  0.28834413  0.93113381     0.12800
H399        H  0.99784833  0.24533737  0.93802209     0.13300
H400        H  0.53293493  0.22885446  0.52996681     0.15300
C401        C  0.42134890  0.17723798  0.31972602    -0.04800
C402        C  0.42499267  0.20740849  0.33466964    -0.04700
C403        C  0.42178074  0.21062164  0.36685424    -0.22900
C404        C  0.41417330  0.18384135  0.38494593     0.19400
C405        C  0.40903436  0.15365891  0.37039344     0.16600
C406        C  0.41202040  0.15066561  0.33792698    -0.17900
C407        C  0.40087276  0.12705083  0.38862533    -0.19700
C408        C  0.39987961  0.12989828  0.42098778    -0.12300
C409        C  0.40701976  0.15943933  0.43587062     0.04400
C410        C  0.41189163  0.18674451  0.41736463    -0.24400
H411        H  0.42964261  0.22886577  0.32141512     0.09500
H412        H  0.42519948  0.23411202  0.37759067     0.13100
H413        H  0.40695348  0.12764386  0.32688207     0.13000
H414        H  0.39589860  0.10385205  0.37788217     0.12800
H415        H  0.39364150  0.10881677  0.43426030     0.13300
H416        H  0.41532277  0.21014437  0.42827957     0.15300
C417        C  0.41754030  0.16671813  0.18634015    -0.04800
C418        C  0.40444198  0.13774425  0.17440709    -0.04700
C419        C  0.40053232  0.13298558  0.14266845    -0.22900
C420        C  0.40861761  0.15746910  0.12196822     0.19400
C421        C  0.41890076  0.18771111  0.13362698     0.16600
C422        C  0.42305508  0.19228056  0.16573641    -0.17900
C423        C  0.42476082  0.21278914  0.11288386    -0.19700
C424        C  0.42237125  0.20735151  0.08093869    -0.12300
C425        C  0.41527629  0.17647268  0.06880007     0.04400
C426        C  0.40667784  0.15208509  0.08982500    -0.24400
H427        H  0.39755691  0.11834229  0.18970515     0.09500
H428        H  0.39146721  0.10998585  0.13430471     0.13100
H429        H  0.43023422  0.21570816  0.17455960     0.13000
H430        H  0.43145014  0.23654921  0.12131658     0.12800
H431        H  0.42642962  0.22738785  0.06563178     0.13300
H432        H  0.39855929  0.12882831  0.08129536     0.15300
C433        C  0.41430199  0.17062897  0.53366843     0.30500
C434        C  0.40991728  0.16243098  0.97112096     0.30500
C435        C  0.38176493  0.18210838  0.51983349    -0.05700
C436        C  0.44146874  0.18739359  0.51378488    -0.06500
C437        C  0.41771635  0.13537750  0.52172855    -0.06400
C438        C  0.37958109  0.17820190  0.98773618    -0.05700
C439        C  0.43917518  0.18294182  0.98203706    -0.06500
C440        C  0.41550083  0.13114295  0.98910704    -0.06400
C441        C  0.35796636  0.20175808  0.97821014    -0.31800
N442        N  0.34648008  0.21891955  0.00328994     0.14700
C443        C  0.36105285  0.20740968  0.52865132    -0.31800
H444        H  0.35967885  0.21897512  0.55130863     0.16700
C445        C  0.46617836  0.19768177  0.96820394    -0.30700
N446        N  0.48447357  0.21201026  0.49045705     0.13500
C447        C  0.46982538  0.20533061  0.51847363    -0.30700
C448        C  0.43853299  0.10738903  0.98066803    -0.31000
N449        N  0.45402396  0.09694713  0.00584700     0.14000
H450        H  0.44774546  0.10247017  0.95722352     0.16600
C451        C  0.44169147  0.11365438  0.53075521    -0.31000
H452        H  0.45364305  0.11438673  0.55287393     0.16600
H453        H  0.47870922  0.21348788  0.54063720     0.16600
H454        H  0.35362219  0.20807239  0.95447673     0.16700
H455        H  0.47215949  0.19778638  0.94365355     0.16600
C456        C  0.42128832  0.17068367  0.72139747     0.30500
C457        C  0.42264190  0.17461064  0.78434260     0.30500
C458        C  0.43175607  0.13954636  0.73759931    -0.05700
C459        C  0.44614361  0.19544439  0.73450664    -0.06500
C460        C  0.38821459  0.18019211  0.73791378    -0.06400
C461        C  0.43227165  0.14145695  0.77011791    -0.05700
C462        C  0.44684789  0.19701528  0.76680605    -0.06500
C463        C  0.38889754  0.18239758  0.77037915    -0.06400
C464        C  0.45742529  0.12078001  0.77877016    -0.31800
N465        N  0.47148826  0.10608159  0.75333394     0.14700
C466        C  0.45660619  0.11788778  0.72825093    -0.31800
H467        H  0.46596804  0.11424039  0.70466416     0.16700
C468        C  0.47472831  0.21408405  0.77454551    -0.30700
N469        N  0.49040973  0.22406992  0.74822457     0.13500
C470        C  0.47349091  0.21258391  0.72355894    -0.30700
C471        C  0.36681059  0.20677891  0.77938429    -0.31000
N472        N  0.35293164  0.21916405  0.75409341     0.14000
H473        H  0.36503291  0.21800881  0.80219059     0.16600
C474        C  0.36586039  0.20330944  0.72888255    -0.31000
H475        H  0.36326883  0.21131803  0.70536239     0.16600
H476        H  0.48185450  0.21475051  0.69964758     0.16600
H477        H  0.46761815  0.11980166  0.80164239     0.16700
H478        H  0.48378777  0.21798912  0.79763727     0.16600
C479        C  0.16081762  0.17493302  0.53081501     0.30500
C480        C  0.15901992  0.17772053  0.96792503     0.30500
C481        C  0.16969864  0.20762918  0.51708883    -0.05700
C482        C  0.18483412  0.15152050  0.51271709    -0.06500
C483        C  0.12715169  0.16663778  0.51675166    -0.06400
C484        C  0.16900454  0.20914137  0.98460692    -0.05700
C485        C  0.18375743  0.15297440  0.98048002    -0.06500
C486        C  0.12612613  0.16772185  0.98440523    -0.06400
C487        C  0.19366173  0.23071432  0.97592854    -0.31800
N488        N  0.20853443  0.24249773  0.00140159     0.14700
C489        C  0.19440504  0.22839368  0.52642455    -0.31800
H490        H  0.20437965  0.22978266  0.54940261     0.16700
C491        C  0.20561014  0.13000253  0.96829208    -0.30700
N492        N  0.22023542  0.11480564  0.49203674     0.13500
C493        C  0.20750906  0.12765414  0.51919208    -0.30700
C494        C  0.10426684  0.14354226  0.97574405    -0.31000
N495        N  0.09123786  0.12931820  0.00121160     0.14000
H496        H  0.10165846  0.13401169  0.95245900     0.16600
C497        C  0.10559279  0.14261810  0.52605063    -0.31000
H498        H  0.10427811  0.13231501  0.54890229     0.16600
H499        H  0.21373251  0.11965227  0.54199912     0.16600
H500        H  0.20284714  0.23452062  0.95247367     0.16700
H501        H  0.21061617  0.12481605  0.94397324     0.16600
C502        C  0.17733696  0.18108046  0.78074764     0.30500
C503        C  0.17925568  0.17881808  0.71753805     0.30500
C504        C  0.18596676  0.21285605  0.76482055    -0.05700
C505        C  0.20211341  0.15705426  0.76544810    -0.06500
C506        C  0.14432042  0.17077256  0.76596630    -0.06400
C507        C  0.18724812  0.21170506  0.73238921    -0.05700
C508        C  0.20322944  0.15584685  0.73335393    -0.06500
C509        C  0.14525779  0.16964253  0.73313168    -0.06400
C510        C  0.20981607  0.23504963  0.72312974    -0.31800
N511        N  0.22128479  0.25072780  0.74841804     0.14700
C512        C  0.20712089  0.23716318  0.77381536    -0.31800
H513        H  0.21506432  0.24170922  0.79719741     0.16700
C514        C  0.22774200  0.13396618  0.72443722    -0.30700
N515        N  0.24184895  0.12270358  0.75028266     0.13500
C516        C  0.22573264  0.13594836  0.77540457    -0.30700
C517        C  0.12396698  0.14490921  0.72473259    -0.31000
N518        N  0.10985871  0.13167806  0.75031388     0.14000
H519        H  0.12237261  0.13443181  0.70171813     0.16600
C520        C  0.12277337  0.14649834  0.77529873    -0.31000
H521        H  0.12024027  0.13730802  0.79852789     0.16600
H522        H  0.23118312  0.13071770  0.79916426     0.16600
H523        H  0.22032232  0.23753536  0.69992638     0.16700
H524        H  0.23560731  0.12740187  0.70101261     0.16600
C525        C  0.41867812  0.41845500  0.53493927     0.30500
C526        C  0.42217549  0.41863963  0.97179747     0.30500
C527        C  0.40983338  0.38649582  0.51881033    -0.05700
C528        C  0.39564606  0.44287294  0.51952835    -0.06500
C529        C  0.45298677  0.42740964  0.52070538    -0.06400
C530        C  0.41133324  0.38658227  0.98623629    -0.05700
C531        C  0.39726310  0.44318049  0.98720930    -0.06500
C532        C  0.45470172  0.42722980  0.98814371    -0.06400
C533        C  0.38655370  0.36573983  0.97671655    -0.31800
N534        N  0.37114113  0.35251934  0.00175715     0.14700
C535        C  0.38495341  0.36517905  0.52732988    -0.31800
H536        H  0.37477500  0.36223055  0.55058864     0.16700
C537        C  0.37696276  0.46834895  0.97849428    -0.30700
N538        N  0.36288605  0.48260402  0.50437676     0.13500
C539        C  0.37458428  0.46744726  0.52947420    -0.30700
C540        C  0.47691599  0.45105182  0.97968490    -0.31000
N541        N  0.48874615  0.46565909  0.00518993     0.14000
H542        H  0.48019053  0.46032764  0.95653415     0.16600
C543        C  0.47391746  0.45203672  0.53018060    -0.31000
H544        H  0.47438564  0.46236499  0.55336020     0.16600
H545        H  0.36849460  0.47411271  0.55330053     0.16600
H546        H  0.37768142  0.36359271  0.95335977     0.16700
H547        H  0.37375937  0.47691524  0.95531785     0.16600
C548        C  0.42743967  0.42630954  0.78355269     0.30500
C549        C  0.43609118  0.41863402  0.72092396     0.30500
C550        C  0.42166329  0.39214863  0.77058237    -0.05700
C551        C  0.40518195  0.44747143  0.76371325    -0.06500
C552        C  0.46261467  0.43472058  0.77052139    -0.06400
C553        C  0.42623086  0.38823262  0.73841047    -0.05700
C554        C  0.40959622  0.44328127  0.73190333    -0.06500
C555        C  0.46706403  0.43098224  0.73795437    -0.06400
C556        C  0.40536664  0.36373611  0.72939124    -0.31800
N557        N  0.38844720  0.35264961  0.75449997     0.14700
C558        C  0.39789234  0.36995077  0.77956469    -0.31800
H559        H  0.38483500  0.36985466  0.80188355     0.16700
C560        C  0.39277104  0.46769393  0.71799792    -0.30700
N561        N  0.37787993  0.48642414  0.74036699     0.13500
C562        C  0.38623769  0.47503977  0.76833695    -0.30700
C563        C  0.48899515  0.45499975  0.72886029    -0.31000
N564        N  0.49888303  0.47199078  0.75395896     0.14000
H565        H  0.49406573  0.46212032  0.70521584     0.16600
C566        C  0.48251558  0.46030247  0.77917688    -0.31000
H567        H  0.48158622  0.47222685  0.80167276     0.16600
H568        H  0.37960491  0.48654867  0.79033742     0.16600
H569        H  0.39931765  0.35778035  0.70573440     0.16700
H570        H  0.39255719  0.47249736  0.69349293     0.16600
C571        C  0.16036364  0.42229588  0.96840994     0.30500
C572        C  0.15906965  0.42273094  0.53160187     0.30500
C573        C  0.15543977  0.45560298  0.98454455    -0.05700
C574        C  0.13308920  0.40149219  0.98374625    -0.06500
C575        C  0.19235767  0.40925990  0.98335703    -0.06400
C576        C  0.15448610  0.45551539  0.51701185    -0.05700
C577        C  0.13255287  0.40162688  0.51617851    -0.06500
C578        C  0.19162043  0.41023532  0.51598530    -0.06400
C579        C  0.13378667  0.48043541  0.52693186    -0.31800
N580        N  0.12272857  0.49604399  0.00205759     0.14700
C581        C  0.13608395  0.48153434  0.97630071    -0.31800
H582        H  0.12836132  0.48680676  0.95317707     0.16700
C583        C  0.11960634  0.37239073  0.52504103    -0.30700
N584        N  0.11110323  0.35492553  0.49970796     0.13500
C585        C  0.12015558  0.37217339  0.97442153    -0.30700
C586        C  0.21388552  0.38747144  0.52573705    -0.31000
N587        N  0.22842817  0.37279279  0.00066710     0.14000
H588        H  0.21670690  0.37977290  0.54932255     0.16600
C589        C  0.21412654  0.38420946  0.97512320    -0.31000
H590        H  0.21662468  0.37211278  0.95283920     0.16600
H591        H  0.12034235  0.36300638  0.95082095     0.16600
H592        H  0.12329710  0.48350624  0.55019869     0.16700
H593        H  0.11855884  0.36381165  0.54849407     0.16600
C594        C  0.18048223  0.42171352  0.77998696     0.30500
C595        C  0.18342996  0.42606382  0.71668217     0.30500
C596        C  0.21653250  0.42097393  0.76447577    -0.05700
C597        C  0.16193121  0.39537223  0.76168221    -0.06500
C598        C  0.16616541  0.45318718  0.76657247    -0.06400
C599        C  0.21719864  0.42090180  0.73165448    -0.05700
C600        C  0.16360319  0.39775625  0.72962200    -0.06500
C601        C  0.16802934  0.45500406  0.73436837    -0.06400
C602        C  0.24117439  0.39824925  0.72215021    -0.31800
N603        N  0.25687871  0.38709646  0.74694564     0.14700
C604        C  0.24404957  0.40273377  0.77214219    -0.31800
H605        H  0.25326194  0.39899657  0.79498584     0.16700
C606        C  0.14406919  0.37394159  0.71750123    -0.30700
N607        N  0.12955859  0.35761118  0.74114238     0.13500
C608        C  0.14051853  0.37021425  0.76832016    -0.30700
C609        C  0.14815798  0.48022723  0.72582542    -0.31000
N610        N  0.13436836  0.49436029  0.75167839     0.14000
H611        H  0.14164897  0.48586737  0.70238751     0.16600
C612        C  0.14566647  0.47861122  0.77670438    -0.31000
H613        H  0.13745241  0.48417679  0.80019577     0.16600
H614        H  0.13193402  0.36300123  0.79113926     0.16600
H615        H  0.24272735  0.38670416  0.69945832     0.16700
H616        H  0.13962091  0.36937554  0.69325049     0.16600
O617        O  0.99818564  0.07192205  0.53046813    -0.74000
O618        O  0.08046215  0.02530615  0.52848882    -0.74000
O619        O  0.06351839  0.08826713  0.52802432    -0.74000
O620        O  0.01530618  0.00881179  0.53049454    -0.74100
O621        O  0.01589986  0.00746423  0.97886682    -0.74000
O622        O  0.06334879  0.08704191  0.97640908    -0.74000
O623        O  0.08083741  0.02414507  0.97684835    -0.74000
O624        O  0.99802975  0.07028157  0.97885580    -0.74000
Ni625      Ni  0.03937556  0.04868708  0.53120927     1.25400
Ni626      Ni  0.03951101  0.04721693  0.97590454     1.25400
C627        C  0.98447380  0.07874437  0.00503500     0.88200
C628        C  0.09398753  0.01666505  0.00242094     0.88200
C629        C  0.07173379  0.10051809  0.00185906     0.88200
C630        C  0.00761888  0.99505335  0.00490968     0.88400
O631        O  0.09357808  0.02669172  0.77774361    -0.74000
O632        O  0.01398172  0.07850765  0.77840980    -0.74000
O633        O  0.02717989  0.01435413  0.77884981    -0.74000
O634        O  0.08048878  0.09112677  0.77701737    -0.74100
O635        O  0.08097274  0.08975918  0.72542361    -0.74000
O636        O  0.02823934  0.01263289  0.72724349    -0.74000
O637        O  0.01445525  0.07688112  0.72680924    -0.74000
O638        O  0.09455206  0.02545204  0.72613529    -0.74000
Ni639      Ni  0.05380918  0.05277496  0.77980010     1.25400
Ni640      Ni  0.05459517  0.05116154  0.72456075     1.25400
C641        C  0.10687089  0.01698966  0.75185853     0.88200
C642        C  0.00105790  0.08627032  0.75280920     0.88200
C643        C  0.01894039  0.00078253  0.75331713     0.88200
C644        C  0.08959255  0.10310947  0.75093225     0.88400
O645        O  0.26033593  0.33539192  0.52714420    -0.74000
O646        O  0.31644598  0.26083949  0.52831727    -0.74000
O647        O  0.32747789  0.32509540  0.52752492    -0.74000
O648        O  0.24981389  0.27134046  0.52746808    -0.74100
O649        O  0.25195795  0.27007306  0.97582333    -0.74000
O650        O  0.32978479  0.32341331  0.97590415    -0.74000
O651        O  0.31847729  0.25907673  0.97666144    -0.74000
O652        O  0.26268063  0.33396142  0.97549247    -0.74000
Ni653      Ni  0.28851187  0.29827941  0.52946595     1.25400
Ni654      Ni  0.29089123  0.29663398  0.97414904     1.25400
C655        C  0.25148328  0.34639361  0.00113332     0.88200
C656        C  0.32634205  0.24741905  0.00271415     0.88200
C657        C  0.34164772  0.33289852  0.00170018     0.88200
C658        C  0.23792390  0.26208405  0.00157081     0.88400
O659        O  0.32524715  0.26322511  0.77856705    -0.74000
O660        O  0.27949506  0.34433339  0.77455145    -0.74000
O661        O  0.26075809  0.28109579  0.77510093    -0.74000
O662        O  0.34353715  0.32610743  0.77858262    -0.74100
O663        O  0.34806656  0.32427699  0.72700627    -0.74000
O664        O  0.26507881  0.27889458  0.72354331    -0.74000
O665        O  0.28370129  0.34227291  0.72298575    -0.74000
O666        O  0.32958086  0.26155020  0.72698273    -0.74000
Ni667      Ni  0.30200872  0.30377516  0.77853566     1.25400
Ni668      Ni  0.30673637  0.30169936  0.72330410     1.25400
C669        C  0.33497205  0.24904224  0.75324232     0.88200
C670        C  0.27452605  0.35695278  0.74816052     0.88200
C671        C  0.24984521  0.27149617  0.74895295     0.88200
C672        C  0.35912349  0.33316844  0.75334155     0.88400
C673        C  0.17812393  0.41704436  0.81549315    -0.04800
C674        C  0.20029732  0.39599411  0.82979048    -0.04700
C675        C  0.20486272  0.39756179  0.86158354    -0.22900
C676        C  0.18186134  0.41440067  0.88063103     0.19400
C677        C  0.15327307  0.42755380  0.86744405     0.16600
C678        C  0.15192621  0.42984623  0.83481976    -0.17900
C679        C  0.12641887  0.43697359  0.88714975    -0.19700
C680        C  0.12842456  0.43339464  0.91931772    -0.12300
C681        C  0.15845434  0.42372646  0.93287962     0.04400
C682        C  0.18553644  0.41543420  0.91279819    -0.24400
H683        H  0.21329104  0.37715918  0.81682790     0.09500
H684        H  0.22451939  0.38345176  0.87144719     0.13100
H685        H  0.12997647  0.43982157  0.82484648     0.13000
H686        H  0.10351839  0.44588135  0.87771545     0.12800
H687        H  0.10653763  0.43887793  0.93375274     0.13300
H688        H  0.20959159  0.40973746  0.92144590     0.15300
C689        C  0.15783670  0.42430707  0.56700946    -0.04800
C690        C  0.12749196  0.42016201  0.58378229    -0.04700
C691        C  0.12626039  0.42125294  0.61611256    -0.22900
C692        C  0.15527532  0.42697862  0.63249280     0.19400
C693        C  0.18555261  0.43287398  0.61608746     0.16600
C694        C  0.18646558  0.43232026  0.58354903    -0.17900
C695        C  0.21445909  0.43894145  0.63255024    -0.19700
C696        C  0.21377637  0.43734916  0.66484891    -0.12300
C697        C  0.18412300  0.42968245  0.68147804     0.04400
C698        C  0.15454912  0.42656236  0.66497818    -0.24400
H699        H  0.10443039  0.41627328  0.57193203     0.03900
H700        H  0.10266344  0.41728251  0.62830025     0.13100
H701        H  0.20964028  0.43753046  0.57112470     0.13000
H702        H  0.23778058  0.44433209  0.62042865     0.12800
H703        H  0.23660048  0.44229857  0.67667563     0.13300
H704        H  0.13102366  0.42296246  0.67741311     0.15300
C705        C  0.42163790  0.42864041  0.81884457    -0.04800
C706        C  0.38994659  0.43687052  0.83190169    -0.04700
C707        C  0.38382448  0.43719072  0.86392373    -0.22900
C708        C  0.40858390  0.42738542  0.88387536     0.19400
C709        C  0.43984217  0.41709523  0.87123771     0.16600
C710        C  0.44624556  0.41791653  0.83895058    -0.17900
C711        C  0.46376092  0.40518645  0.89106962    -0.19700
C712        C  0.45715333  0.40448976  0.92303780    -0.12300
C713        C  0.42699618  0.41689761  0.93632871     0.04400
C714        C  0.40220701  0.42686490  0.91614361    -0.24400
H715        H  0.36911044  0.44181233  0.81747867     0.09500
H716        H  0.35930993  0.44418427  0.87300849     0.13100
H717        H  0.47011150  0.40955601  0.82940101     0.13000
H718        H  0.48759128  0.39631390  0.88187781     0.12800
H719        H  0.47622085  0.39490939  0.93756691     0.13300
H720        H  0.37766824  0.43335926  0.92521333     0.15300
C721        C  0.43867291  0.41347969  0.68573781    -0.04800
C722        C  0.46946660  0.40772134  0.67014771    -0.04700
C723        C  0.47154165  0.40564057  0.63774159    -0.22900
C724        C  0.44288286  0.40960062  0.62028261     0.19400
C725        C  0.41153996  0.41307067  0.63568493     0.16600
C726        C  0.40952724  0.41361753  0.66815778    -0.17900
C727        C  0.38280145  0.41661453  0.61837252    -0.19700
C728        C  0.38527893  0.41815384  0.58610382    -0.12300
C729        C  0.41652821  0.41661558  0.57034100     0.04400
C730        C  0.44510411  0.41065332  0.58776843    -0.24400
H731        H  0.49206733  0.40514628  0.68294820     0.09500
H732        H  0.49571902  0.40195993  0.62632676     0.13100
H733        H  0.38522929  0.41549762  0.67974738     0.13000
H734        H  0.35842731  0.41872229  0.62980488     0.12800
H735        H  0.36258120  0.42053386  0.57341743     0.13300
H736        H  0.46919594  0.40705795  0.57620163     0.15300
C737        C  0.35502559  0.01253308  0.73521933    -0.04800
C738        C  0.33411054  0.51079225  0.70971650    -0.04700
C739        C  0.30869554  0.03358614  0.70668147    -0.22900
C740        C  0.30370794  0.05786912  0.72921861     0.19400
C741        C  0.32559275  0.06050094  0.75418936     0.16600
C742        C  0.35134250  0.03800191  0.75684741    -0.17900
C743        C  0.32056479  0.08484099  0.77669609    -0.19700
C744        C  0.29321491  0.10550801  0.77518331    -0.12300
C745        C  0.27063224  0.10221231  0.75106587     0.04400
C746        C  0.27649229  0.07882672  0.72775633    -0.24400
H747        H  0.33630901  0.49120060  0.69289079     0.09500
H748        H  0.29226062  0.53117743  0.68735550     0.13100
H749        H  0.36780446  0.03969835  0.77621212     0.13000
H750        H  0.33736510  0.08749606  0.79575355     0.12800
H751        H  0.28971839  0.12410638  0.79286325     0.13300
H752        H  0.25918826  0.07616752  0.70911231     0.15300
C753        C  0.34000706  0.01003653  0.50519258    -0.04800
C754        C  0.33984341  0.53181037  0.53023859    -0.04700
C755        C  0.31695072  0.05768628  0.53203524    -0.22900
C756        C  0.29321707  0.06122630  0.50918718     0.19400
C757        C  0.29307969  0.03926329  0.48381522     0.16600
C758        C  0.31657636  0.01389463  0.98189218    -0.17900
C759        C  0.26919474  0.04287857  0.96105804    -0.19700
C760        C  0.24546686  0.06774843  0.96361825    -0.12300
C761        C  0.24509913  0.08950370  0.48900144     0.04400
C762        C  0.26940485  0.08616922  0.51154458    -0.24400
H763        H  0.35783010  0.52972148  0.54826681     0.09500
H764        H  0.31749521  0.57399080  0.55158121     0.13100
H765        H  0.31604941  0.99669424  0.96275735     0.13000
H766        H  0.26864293  0.02628754  0.94143138     0.12800
H767        H  0.22696925  0.06957391  0.94600615     0.13300
H768        H  0.26987438  0.10308298  0.53089640     0.15300
C769        C  0.15698024  0.18093381  0.93276367    -0.04800
C770        C  0.12597273  0.18564220  0.91881135    -0.04700
C771        C  0.12362575  0.18668988  0.88672222    -0.22900
C772        C  0.15238042  0.18474412  0.86769188     0.19400
C773        C  0.18392225  0.18310954  0.88130211     0.16600
C774        C  0.18606656  0.18124458  0.91366499    -0.17900
C775        C  0.21275249  0.18374347  0.86228144    -0.19700
C776        C  0.21023660  0.18463224  0.83015436    -0.12300
C777        C  0.17894615  0.18316967  0.81608444     0.04400
C778        C  0.15004611  0.18482400  0.83531471    -0.24400
H779        H  0.10316745  0.18861246  0.93258064     0.09500
H780        H  0.09926992  0.18919430  0.87681610     0.13100
H781        H  0.21031413  0.17989791  0.92394902     0.13000
H782        H  0.23723766  0.18360686  0.87220905     0.12800
H783        H  0.23304173  0.18583599  0.81616779     0.13300
H784        H  0.12573034  0.18667949  0.82530700     0.15300
C785        C  0.15953420  0.17574179  0.56633734    -0.04800
C786        C  0.12925999  0.18372569  0.58237041    -0.04700
C787        C  0.12697750  0.18489522  0.61455886    -0.22900
C788        C  0.15539447  0.18042159  0.63182770     0.19400
C789        C  0.18660686  0.17537266  0.61637004     0.16600
C790        C  0.18850897  0.17271754  0.58374197    -0.17900
C791        C  0.21538643  0.17414848  0.63387480    -0.19700
C792        C  0.21298880  0.17687992  0.66621940    -0.12300
C793        C  0.18167226  0.17855634  0.68204270     0.04400
C794        C  0.15307223  0.18177455  0.66431986    -0.24400
H795        H  0.10690438  0.18928481  0.57009558     0.09500
H796        H  0.10302087  0.19000750  0.62592557     0.13100
H797        H  0.21250825  0.16919884  0.57197960     0.13000
H798        H  0.23977534  0.17160041  0.62257326     0.12800
H799        H  0.23582621  0.17742841  0.67887865     0.13300
H800        H  0.12895566  0.18595835  0.67567892     0.15300
C801        C  0.10319755  0.33459378  0.73749752    -0.04800
C802        C  0.07854880  0.33992699  0.71564857    -0.04700
C803        C  0.05227658  0.31836347  0.71222593    -0.22900
C804        C  0.05022318  0.29086524  0.73047558     0.19400
C805        C  0.07531720  0.28482606  0.75204611     0.16600
C806        C  0.10156690  0.30683225  0.75553513    -0.17900
C807        C  0.07332261  0.25717781  0.77012766    -0.19700
C808        C  0.04599245  0.23659963  0.76795449    -0.12300
C809        C  0.02037104  0.24300105  0.74738824     0.04400
C810        C  0.02306185  0.26977626  0.72811997    -0.24400
H811        H  0.07923186  0.36130799  0.70165610     0.09500
H812        H  0.03334377  0.32342094  0.69559115     0.13100
H813        H  0.12070694  0.30245467  0.77216412     0.13000
H814        H  0.09249839  0.25185142  0.78646517     0.12800
H815        H  0.04451791  0.21582880  0.78271439     0.13300
H816        H  0.50323465  0.27494558  0.71240237     0.15300
C817        C  0.09572227  0.32346589  0.49997975    -0.04800
C818        C  0.09649065  0.30426840  0.02655569    -0.04700
C819        C  0.07716490  0.27648026  0.02889611    -0.22900
C820        C  0.05662891  0.26722725  0.00472953     0.19400
C821        C  0.05754923  0.28482157  0.47701848     0.16600
C822        C  0.07719650  0.31263182  0.47472325    -0.17900
C823        C  0.03731522  0.27538437  0.45270547    -0.19700
C824        C  0.01452631  0.25041672  0.45663926    -0.12300
C825        C  0.01172303  0.23401354  0.48488194     0.04400
C826        C  0.03403219  0.24172992  0.00837657    -0.24400
H827        H  0.11141995  0.31097888  0.04601181     0.09500
H828        H  0.07738212  0.26289906  0.05008227     0.13100
H829        H  0.07628713  0.32686738  0.45400566     0.13000
H830        H  0.03793257  0.28833822  0.43112811     0.12800
H831        H  0.99785580  0.24533515  0.43801739     0.13300
H832        H  0.53293907  0.22885263  0.02996196     0.15300
C833        C  0.42134929  0.17723464  0.81972664    -0.04800
C834        C  0.42498901  0.20740504  0.83467126    -0.04700
C835        C  0.42177749  0.21061653  0.86685590    -0.22900
C836        C  0.41417462  0.18383446  0.88494655     0.19400
C837        C  0.40903994  0.15365173  0.87039316     0.16600
C838        C  0.41202531  0.15066010  0.83792661    -0.17900
C839        C  0.40088299  0.12704186  0.88862422    -0.19700
C840        C  0.39988943  0.12988836  0.92098674    -0.12300
C841        C  0.40702510  0.15943024  0.93587033     0.04400
C842        C  0.41189311  0.18673637  0.91736514    -0.24400
H843        H  0.42963580  0.22886338  0.82141743     0.09500
H844        H  0.42519295  0.23410698  0.87759314     0.13100
H845        H  0.40696114  0.12763815  0.82688103     0.13000
H846        H  0.39591232  0.10384257  0.87788037     0.12800
H847        H  0.39365390  0.10880577  0.93425850     0.13300
H848        H  0.41532121  0.21013647  0.92828075     0.15300
C849        C  0.41754365  0.16672084  0.68634040    -0.04800
C850        C  0.40444504  0.13774734  0.67440688    -0.04700
C851        C  0.40053339  0.13298986  0.64266842    -0.22900
C852        C  0.40861736  0.15747415  0.62196869     0.19400
C853        C  0.41890067  0.18771591  0.63362791     0.16600
C854        C  0.42305659  0.19228432  0.66573736    -0.17900
C855        C  0.42475972  0.21279453  0.61288515    -0.19700
C856        C  0.42236981  0.20735736  0.58093984    -0.12300
C857        C  0.41527441  0.17647875  0.56880078     0.04400
C858        C  0.40667640  0.15209087  0.58982545    -0.24400
H859        H  0.39756080  0.11834474  0.68970451     0.09500
H860        H  0.39146794  0.10999040  0.63430442     0.13100
H861        H  0.43023557  0.21571171  0.67456104     0.13000
H862        H  0.43144902  0.23655445  0.62131818     0.12800
H863        H  0.42642829  0.22739388  0.56563313     0.13300
H864        H  0.39855759  0.12883429  0.58129552     0.15300
C865        C  0.41446693  0.67102840  0.03346841     0.30500
C866        C  0.41015837  0.66283191  0.47090745     0.30500
C867        C  0.38191682  0.68242822  0.01960637    -0.05700
C868        C  0.44159777  0.68785219  0.01360519    -0.06500
C869        C  0.41796504  0.63578285  0.02153301    -0.06400
C870        C  0.37976612  0.67854344  0.48750454    -0.05700
C871        C  0.43934931  0.68342400  0.48184887    -0.06500
C872        C  0.41579561  0.63155536  0.48890943    -0.06400
C873        C  0.35809191  0.70206283  0.47798974    -0.31800
N874        N  0.34653540  0.71916633  0.50308518     0.14700
C875        C  0.36111308  0.70764828  0.02843994    -0.31800
H876        H  0.35967993  0.71917855  0.05111173     0.16700
C877        C  0.46619111  0.69846858  0.46804685    -0.30700
N878        N  0.48432988  0.71291629  0.99034240     0.13500
C879        C  0.46976092  0.70604605  0.01833780    -0.30700
C880        C  0.43881164  0.60777017  0.48051009    -0.31000
N881        N  0.45421117  0.59727857  0.50572085     0.14000
H882        H  0.44805448  0.60281385  0.45708069     0.16600
C883        C  0.44189233  0.61403099  0.03060775    -0.31000
H884        H  0.45379701  0.61473287  0.05274801     0.16600
H885        H  0.47853339  0.71430098  0.04050821     0.16600
H886        H  0.35374634  0.70839463  0.45426071     0.16700
H887        H  0.47214298  0.69875397  0.44349509     0.16600
C888        C  0.42179884  0.67112851  0.22118792     0.30500
C889        C  0.42302405  0.67498791  0.28415138     0.30500
C890        C  0.43227370  0.63998759  0.23738721    -0.05700
C891        C  0.44658772  0.69590961  0.23437245    -0.06500
C892        C  0.38868202  0.68056090  0.23767384    -0.06400
C893        C  0.43271534  0.64186299  0.26990583    -0.05700
C894        C  0.44722022  0.69743536  0.26667467    -0.06500
C895        C  0.38930023  0.68272755  0.27014199    -0.06400
C896        C  0.45778261  0.62111610  0.27859840    -0.31800
N897        N  0.47184120  0.60638295  0.25318036     0.14700
C898        C  0.45707920  0.61827042  0.22806816    -0.31800
H899        H  0.46647025  0.61458934  0.20449379     0.16700
C900        C  0.47493795  0.71468587  0.27450885    -0.30700
N901        N  0.49061071  0.72480881  0.24823901     0.13500
C902        C  0.47382211  0.71326628  0.22351088    -0.30700
C903        C  0.36709925  0.70700239  0.27916022    -0.31000
N904        N  0.35321478  0.71936558  0.25386492     0.14000
H905        H  0.36522339  0.71818364  0.30198230     0.16600
C906        C  0.36625588  0.70360661  0.22864498    -0.31000
H907        H  0.36366856  0.71163936  0.20513359     0.16600
H908        H  0.48219351  0.71556655  0.19961518     0.16600
H909        H  0.46790255  0.62006605  0.30149535     0.16700
H910        H  0.48389184  0.71864068  0.29763267     0.16600
C911        C  0.16108083  0.67473310  0.03065331     0.30500
C912        C  0.15924710  0.67752409  0.46775963     0.30500
C913        C  0.16990575  0.70743982  0.01692884    -0.05700
C914        C  0.18511005  0.65134936  0.01254177    -0.06500
C915        C  0.12742183  0.66639810  0.01661036    -0.06400
C916        C  0.16919995  0.70896161  0.48445060    -0.05700
C917        C  0.18402109  0.65280472  0.48030094    -0.06500
C918        C  0.12636935  0.66747688  0.48426331    -0.06400
C919        C  0.19378396  0.73062111  0.47578238    -0.31800
N920        N  0.20861106  0.74245569  0.50126232     0.14700
C921        C  0.19453932  0.72827984  0.02627576    -0.31800
H922        H  0.20450446  0.72969355  0.04925860     0.16700
C923        C  0.20583104  0.62978611  0.46811448    -0.30700
N924        N  0.22042936  0.61456231  0.99187467     0.13500
C925        C  0.20772434  0.62744129  0.01902164    -0.30700
C926        C  0.10450751  0.64327467  0.47564476    -0.31000
N927        N  0.09147919  0.62908589  0.50113650     0.14000
H928        H  0.10186722  0.63372344  0.45237095     0.16600
C929        C  0.10586216  0.64239745  0.02595563    -0.31000
H930        H  0.10454042  0.63213633  0.04882441     0.16600
H931        H  0.21389549  0.61940561  0.04183078     0.16600
H932        H  0.20294680  0.73447929  0.45232931     0.16700
H933        H  0.21081270  0.62457119  0.44379572     0.16600
C934        C  0.17753696  0.68103037  0.28058351     0.30500
C935        C  0.17947161  0.67860905  0.21737744     0.30500
C936        C  0.18611470  0.71278343  0.26458001    -0.05700
C937        C  0.20236311  0.65702246  0.26534631    -0.06500
C938        C  0.14454613  0.67059845  0.26582073    -0.06400
C939        C  0.18742110  0.71154828  0.23214691    -0.05700
C940        C  0.20347805  0.65572852  0.23325444    -0.06500
C941        C  0.14548817  0.66940293  0.23298731    -0.06400
C942        C  0.21001907  0.73486241  0.22284667    -0.31800
N943        N  0.22145614  0.75061693  0.24810651     0.14700
C944        C  0.20726286  0.73711733  0.27352342    -0.31800
H945        H  0.21517493  0.74173690  0.29690329     0.16700
C946        C  0.22797544  0.63382487  0.22439099    -0.30700
N947        N  0.24208054  0.62263204  0.25026429     0.13500
C948        C  0.22598314  0.63595445  0.27535829    -0.30700
C949        C  0.12424669  0.64461058  0.22462944    -0.31000
N950        N  0.11016975  0.63139051  0.25023189     0.14000
H951        H  0.12264458  0.63411224  0.20162362     0.16600
C952        C  0.12306242  0.64627770  0.27519205    -0.31000
H953        H  0.12053468  0.63712678  0.29843660     0.16600
H954        H  0.23141917  0.63078052  0.29913424     0.16600
H955        H  0.22055555  0.73728163  0.19964695     0.16700
H956        H  0.23580767  0.62717309  0.20098071     0.16600
C957        C  0.41857689  0.91883119  0.03493289     0.30500
C958        C  0.42211485  0.91891962  0.47178270     0.30500
C959        C  0.40961858  0.88688103  0.01883744    -0.05700
C960        C  0.39565399  0.94330823  0.01947020    -0.06500
C961        C  0.45293129  0.92763760  0.02070028    -0.06400
C962        C  0.41115413  0.88691933  0.48626301    -0.05700
C963        C  0.39728390  0.94356832  0.48714753    -0.06500
C964        C  0.45466029  0.92741908  0.48813708    -0.06400
C965        C  0.38639244  0.86606004  0.47674133    -0.31800
N966        N  0.37095143  0.85287225  0.50178719     0.14700
C967        C  0.38471037  0.86559283  0.02736405    -0.31800
H968        H  0.37450357  0.86268066  0.05061847     0.16700
C969        C  0.37704502  0.96876342  0.47837675    -0.30700
N970        N  0.36301763  0.98310463  0.00423668     0.13500
C971        C  0.37465406  0.96794912  0.02936310    -0.30700
C972        C  0.47699028  0.95113386  0.47965305    -0.31000
N973        N  0.48888268  0.96571090  0.50514267     0.14000
H974        H  0.48030638  0.96038321  0.45649608     0.16600
C975        C  0.47397072  0.95218381  0.03015038    -0.31000
H976        H  0.47445426  0.96255540  0.05331255     0.16600
H977        H  0.36854942  0.97464653  0.05317866     0.16600
H978        H  0.37757925  0.86384275  0.45336982     0.16700
H979        H  0.37384687  0.97725592  0.45517192     0.16600
C980        C  0.42739046  0.92650922  0.28355108     0.30500
C981        C  0.43603146  0.91884631  0.22092017     0.30500
C982        C  0.42158219  0.89235512  0.27057133    -0.05700
C983        C  0.40514935  0.94769591  0.26372548    -0.06500
C984        C  0.46257791  0.93488913  0.27050955    -0.06400
C985        C  0.42616629  0.88844819  0.23840208    -0.05700
C986        C  0.40956354  0.94351737  0.23191704    -0.06500
C987        C  0.46701958  0.93114847  0.23794365    -0.06400
C988        C  0.40535765  0.86392606  0.22936103    -0.31800
N989        N  0.38841902  0.85282918  0.25445106     0.14700
C990        C  0.39781657  0.87013890  0.27953205    -0.31800
H991        H  0.38474252  0.87002136  0.30184254     0.16700
C992        C  0.39277543  0.96796406  0.21802726    -0.30700
N993        N  0.37787528  0.98668374  0.24040074     0.13500
C994        C  0.38620462  0.97526536  0.26836750    -0.30700
C995        C  0.48902257  0.95509853  0.22884177    -0.31000
N996        N  0.49896300  0.97205573  0.25393968     0.14000
H997        H  0.49411753  0.96220238  0.20519613     0.16600
C998        C  0.48254645  0.96042221  0.27915922    -0.31000
H999        H  0.48164544  0.97235416  0.30165136     0.16600
H1000       H  0.37954341  0.98673902  0.29038018     0.16600
H1001       H  0.39935227  0.85795819  0.20569596     0.16700
H1002       H  0.39258699  0.97279445  0.19352751     0.16600
C1003       C  0.16073503  0.92294514  0.46835352     0.30500
C1004       C  0.15945693  0.92345276  0.03153027     0.30500
C1005       C  0.15598432  0.95630033  0.48443151    -0.05700
C1006       C  0.13333853  0.90231684  0.48371729    -0.06500
C1007       C  0.19265570  0.90975885  0.48331236    -0.06400
C1008       C  0.15505793  0.95625077  0.01691227    -0.05700
C1009       C  0.13281031  0.90248792  0.01614254    -0.06500
C1010       C  0.19193044  0.91075459  0.01593570    -0.06400
C1011       C  0.13428938  0.98112655  0.02680040    -0.31800
N1012       N  0.12311208  0.99663518  0.50191951     0.14700
C1013       C  0.13651599  0.98215155  0.47617807    -0.31800
H1014       H  0.12870515  0.98732756  0.45306065     0.16700
C1015       C  0.11963913  0.87336077  0.02505073    -0.30700
N1016       N  0.11100251  0.85594129  0.99973644     0.13500
C1017       C  0.12018583  0.87308847  0.47442880    -0.30700
C1018       C  0.21401840  0.88783374  0.02570607    -0.31000
N1019       N  0.22845482  0.87305457  0.50064906     0.14000
H1020       H  0.21678796  0.88013544  0.04929870     0.16600
C1021       C  0.21426061  0.88457597  0.47509177    -0.31000
H1022       H  0.21672619  0.87251345  0.45278684     0.16600
H1023       H  0.12030504  0.86388765  0.45084025     0.16600
H1024       H  0.12377046  0.98416586  0.05006214     0.16700
H1025       H  0.11852240  0.86480327  0.04851001     0.16600
C1026       C  0.18097043  0.92244391  0.27990563     0.30500
C1027       C  0.18377895  0.92672625  0.21659096     0.30500
C1028       C  0.21697011  0.92136528  0.26428590    -0.05700
C1029       C  0.16209933  0.89627569  0.26167493    -0.06500
C1030       C  0.16691544  0.95404716  0.26649920    -0.06400
C1031       C  0.21752812  0.92123994  0.23147557    -0.05700
C1032       C  0.16369469  0.89862444  0.22960957    -0.06500
C1033       C  0.16872235  0.95583781  0.23427612    -0.06400
C1034       C  0.24127722  0.89838451  0.22192158    -0.31800
N1035       N  0.25699804  0.88717508  0.24668182     0.14700
C1036       C  0.24439044  0.90295454  0.27188490    -0.31800
H1037       H  0.25377771  0.89930867  0.29467749     0.16700
C1038       C  0.14398925  0.87490584  0.21756523    -0.30700
N1039       N  0.12946513  0.85866852  0.24125934     0.13500
C1040       C  0.14057674  0.87123184  0.26839458    -0.30700
C1041       C  0.14859639  0.98088596  0.22574100    -0.31000
N1042       N  0.13472114  0.99494539  0.25159066     0.14000
H1043       H  0.14191846  0.98637765  0.20231423     0.16600
C1044       C  0.14616716  0.97929495  0.27661207    -0.31000
H1045       H  0.13783086  0.98473911  0.30009564     0.16600
H1046       H  0.13207196  0.86403588  0.29124234     0.16600
H1047       H  0.24268314  0.88681755  0.19923744     0.16700
H1048       H  0.13949022  0.87030071  0.19332715     0.16600
O1049       O  0.99821042  0.57204963  0.03043595    -0.74000
O1050       O  0.08028805  0.52506142  0.02859957    -0.74000
O1051       O  0.06362657  0.58813088  0.02802033    -0.74000
O1052       O  0.01507328  0.50883261  0.03055918    -0.74100
O1053       O  0.01573121  0.50744232  0.47892553    -0.74000
O1054       O  0.06346873  0.58684987  0.47639967    -0.74000
O1055       O  0.08070138  0.52387768  0.47695636    -0.74000
O1056       O  0.99809291  0.57033535  0.47881632    -0.74000
Ni1057     Ni  0.03930267  0.54863669  0.03124858     1.25400
Ni1058     Ni  0.03948104  0.54711112  0.47593938     1.25400
C1059       C  0.98455838  0.57891316  0.50497069     0.88200
C1060       C  0.09376677  0.51631289  0.50254384     0.88200
C1061       C  0.07189175  0.60033416  0.50183159     0.88200
C1062       C  0.00741702  0.49505310  0.50496803     0.88400
O1063       O  0.09345586  0.52641331  0.27779676    -0.74000
O1064       O  0.01413155  0.57860611  0.27834053    -0.74000
O1065       O  0.02702511  0.51436226  0.27886359    -0.74000
O1066       O  0.08069721  0.59092165  0.27698425    -0.74100
O1067       O  0.08118916  0.58950314  0.22539104    -0.74000
O1068       O  0.02814482  0.51258100  0.22725770    -0.74000
O1069       O  0.01463661  0.57689465  0.22673967    -0.74000
O1070       O  0.09447281  0.52514708  0.22618675    -0.74000
Ni1071     Ni  0.05382453  0.55268544  0.27979556     1.25400
Ni1072     Ni  0.05464992  0.55101134  0.22455555     1.25400
C1073       C  0.10670401  0.51662014  0.25192385     0.88200
C1074       C  0.00128118  0.58640245  0.25271525     0.88200
C1075       C  0.01881438  0.50075953  0.25333399     0.88200
C1076       C  0.08984893  0.60285282  0.25088662     0.88400
O1077       O  0.26021790  0.83550059  0.02712042    -0.74000
O1078       O  0.31642981  0.76099253  0.02817362    -0.74000
O1079       O  0.32736728  0.82528100  0.02751613    -0.74000
O1080       O  0.24978918  0.77140631  0.02735237    -0.74100
O1081       O  0.25192862  0.77022828  0.47571155    -0.74000
O1082       O  0.32968397  0.82368156  0.47589524    -0.74000
O1083       O  0.31846737  0.75932665  0.47651999    -0.74000
O1084       O  0.26259244  0.83414858  0.47547076    -0.74000
Ni1085     Ni  0.28844106  0.79840215  0.02939485     1.25400
Ni1086     Ni  0.29083029  0.79685103  0.47408039     1.25400
C1087       C  0.25140394  0.84656767  0.50111719     0.88200
C1088       C  0.32634694  0.74763647  0.50255187     0.88200
C1089       C  0.34151596  0.83316680  0.50170564     0.88200
C1090       C  0.23792357  0.76215615  0.50144857     0.88400
O1091       O  0.32535506  0.76331912  0.27834848    -0.74000
O1092       O  0.27946862  0.84435000  0.27429654    -0.74000
O1093       O  0.26084087  0.78106913  0.27480438    -0.74000
O1094       O  0.34350648  0.82622563  0.27844936    -0.74100
O1095       O  0.34812871  0.82441863  0.22687654    -0.74000
O1096       O  0.26522583  0.77887427  0.22325018    -0.74000
O1097       O  0.28375218  0.84231033  0.22273301    -0.74000
O1098       O  0.32975381  0.76167738  0.22676567    -0.74000
Ni1099     Ni  0.30203277  0.80382254  0.27830866     1.25400
Ni1100     Ni  0.30684425  0.80177200  0.22307956     1.25400
C1101       C  0.33515129  0.74917808  0.25302366     0.88200
C1102       C  0.27455616  0.85698618  0.24790144     0.88200
C1103       C  0.24998063  0.77143946  0.24864661     0.88200
C1104       C  0.35912482  0.83331560  0.25323717     0.88400
C1105       C  0.17866693  0.91781846  0.31543135    -0.04800
C1106       C  0.20090606  0.89685247  0.32975701    -0.04700
C1107       C  0.20544110  0.89841891  0.36155019    -0.22900
C1108       C  0.18234498  0.91513318  0.38058916     0.19400
C1109       C  0.15372283  0.92819942  0.36737648     0.16600
C1110       C  0.15239224  0.93049266  0.33474562    -0.17900
C1111       C  0.12682018  0.93752424  0.38706294    -0.19700
C1112       C  0.12880724  0.93394867  0.41923227    -0.12300
C1113       C  0.15884239  0.92433581  0.43282043     0.04400
C1114       C  0.18596340  0.91609967  0.41276798    -0.24400
H1115       H  0.21384261  0.87795011  0.31685759     0.09500
H1116       H  0.22512320  0.88434706  0.37142123     0.13100
H1117       H  0.13040892  0.94038622  0.32475357     0.13000
H1118       H  0.10390129  0.94637068  0.37761185     0.12800
H1119       H  0.10689659  0.93938798  0.43365032     0.13300
H1120       H  0.21000345  0.91039766  0.42146063     0.15300
C1121       C  0.15821478  0.92506750  0.06693011    -0.04800
C1122       C  0.12783214  0.92111181  0.08369271    -0.04700
C1123       C  0.12659232  0.92220452  0.11601911    -0.22900
C1124       C  0.15563668  0.92775808  0.13240275     0.19400
C1125       C  0.18595368  0.93350269  0.11600345     0.16600
C1126       C  0.18688099  0.93293378  0.08346857    -0.17900
C1127       C  0.21488388  0.93943398  0.13246836    -0.19700
C1128       C  0.21417790  0.93785182  0.16476394    -0.12300
C1129       C  0.18448193  0.93031120  0.18138704     0.04400
C1130       C  0.15489854  0.92732432  0.16488533    -0.24400
H1131       H  0.10474922  0.91736553  0.07183799     0.03900
H1132       H  0.10296506  0.91836878  0.12820048     0.13100
H1133       H  0.21009251  0.93800946  0.07104626     0.13000
H1134       H  0.23823795  0.94471431  0.12035130     0.12800
H1135       H  0.23702195  0.94270112  0.17659590     0.13300
H1136       H  0.13134908  0.92384092  0.17731433     0.15300
C1137       C  0.42157745  0.92884571  0.31883729    -0.04800
C1138       C  0.38983647  0.93692214  0.33187389    -0.04700
C1139       C  0.38369196  0.93721061  0.36389465    -0.22900
C1140       C  0.40849336  0.92753248  0.38386106     0.19400
C1141       C  0.43981539  0.91740712  0.37123762     0.16600
C1142       C  0.44623262  0.91825727  0.33895619    -0.17900
C1143       C  0.46378992  0.90561809  0.39107416    -0.19700
C1144       C  0.45716648  0.90486699  0.42303375    -0.12300
C1145       C  0.42694683  0.91714236  0.43631791     0.04400
C1146       C  0.40210982  0.92698912  0.41612957    -0.24400
H1147       H  0.36899717  0.94179527  0.31742594     0.09500
H1148       H  0.35913767  0.94408351  0.37296688     0.13100
H1149       H  0.47014538  0.91001049  0.32942247     0.13000
H1150       H  0.48767303  0.89687222  0.38189201     0.12800
H1151       H  0.47627579  0.89535762  0.43755776     0.13300
H1152       H  0.37755119  0.93341471  0.42521040     0.15300
C1153       C  0.43858146  0.91370845  0.18573307    -0.04800
C1154       C  0.46935472  0.90788707  0.17013128    -0.04700
C1155       C  0.47141551  0.90586069  0.13772403    -0.22900
C1156       C  0.44276500  0.90993671  0.12027772     0.19400
C1157       C  0.41143386  0.91346901  0.13568753     0.16600
C1158       C  0.40942980  0.91394747  0.16816048    -0.17900
C1159       C  0.38270423  0.91712647  0.11838134    -0.19700
C1160       C  0.38518092  0.91868967  0.08611095    -0.12300
C1161       C  0.41642180  0.91705056  0.07034065     0.04400
C1162       C  0.44498298  0.91101134  0.08776642    -0.24400
H1163       H  0.49194963  0.90522781  0.18292422     0.09500
H1164       H  0.49558009  0.90212705  0.12629869     0.13100
H1165       H  0.38513629  0.91585629  0.17975749     0.13000
H1166       H  0.35833639  0.91928726  0.12981958     0.12800
H1167       H  0.36249035  0.92114269  0.07342831     0.13300
H1168       H  0.46906264  0.90734023  0.07619947     0.15300
C1169       C  0.35506715  0.51230718  0.23517635    -0.04800
C1170       C  0.33411840  0.01102861  0.20972083    -0.04700
C1171       C  0.30873854  0.53340209  0.20667095    -0.22900
C1172       C  0.30378789  0.55767890  0.22922123     0.19400
C1173       C  0.32567489  0.56027235  0.25419058     0.16600
C1174       C  0.35141258  0.53776513  0.25681730    -0.17900
C1175       C  0.32067209  0.58459006  0.27672309    -0.19700
C1176       C  0.29335956  0.60529920  0.27521778    -0.12300
C1177       C  0.27079668  0.60206636  0.25107960     0.04400
C1178       C  0.27661508  0.57867846  0.22776476    -0.24400
H1179       H  0.33634004  0.99143211  0.19290258     0.09500
H1180       H  0.29225425  0.03135603  0.18733700     0.13100
H1181       H  0.36789121  0.53945071  0.27616842     0.13000
H1182       H  0.33747062  0.58720301  0.29578694     0.12800
H1183       H  0.28988826  0.62388983  0.29290873     0.13300
H1184       H  0.25931718  0.57605506  0.20911259     0.15300
C1185       C  0.33985101  0.50949553  0.00535718    -0.04800
C1186       C  0.33998534  0.03230777  0.03011922    -0.04700
C1187       C  0.31688522  0.55723927  0.03209165    -0.22900
C1188       C  0.29318274  0.56078384  0.00921350     0.19400
C1189       C  0.29297364  0.53873898  0.98391229     0.16600
C1190       C  0.31637773  0.51330560  0.48206486    -0.17900
C1191       C  0.26907867  0.54234266  0.46113501    -0.19700
C1192       C  0.24546257  0.56732261  0.46358820    -0.12300
C1193       C  0.24520743  0.58917887  0.98889569     0.04400
C1194       C  0.26947944  0.58582356  0.01146758    -0.24400
H1195       H  0.35797025  0.03020528  0.04814597     0.09500
H1196       H  0.31752958  0.07437231  0.05158649     0.13100
H1197       H  0.31581597  0.49605299  0.46297547     0.13000
H1198       H  0.26846581  0.52567815  0.44156923     0.12800
H1199       H  0.22697951  0.56916177  0.44596341     0.13300
H1200       H  0.27000840  0.60280153  0.03076433     0.15300
C1201       C  0.15719509  0.68073901  0.43259548    -0.04800
C1202       C  0.12616454  0.68527246  0.41863412    -0.04700
C1203       C  0.12381742  0.68634102  0.38654865    -0.22900
C1204       C  0.15258512  0.68460539  0.36752634     0.19400
C1205       C  0.18413462  0.68314691  0.38113978     0.16600
C1206       C  0.18628477  0.68123615  0.41350365    -0.17900
C1207       C  0.21295781  0.68396379  0.36211737    -0.19700
C1208       C  0.21043239  0.68481521  0.32998611    -0.12300
C1209       C  0.17914638  0.68319655  0.31591898     0.04400
C1210       C  0.15024587  0.68470204  0.33515220    -0.24400
H1211       H  0.10333673  0.68811512  0.43238974     0.09500
H1212       H  0.09944800  0.68870424  0.37663899     0.13100
H1213       H  0.21053498  0.67998087  0.42379450     0.13000
H1214       H  0.23744426  0.68395761  0.37204424     0.12800
H1215       H  0.23322759  0.68608603  0.31599211     0.13300
H1216       H  0.12591831  0.68643757  0.32515163     0.15300
C1217       C  0.15980175  0.67552804  0.06617097    -0.04800
C1218       C  0.12954143  0.68357235  0.08219673    -0.04700
C1219       C  0.12723917  0.68469047  0.11438351    -0.22900
C1220       C  0.15563594  0.68013411  0.13165926     0.19400
C1221       C  0.18684812  0.67505122  0.11620903     0.16600
C1222       C  0.18876158  0.67242239  0.08358041    -0.17900
C1223       C  0.21561837  0.67378844  0.13372137    -0.19700
C1224       C  0.21321446  0.67654493  0.16606338    -0.12300
C1225       C  0.18189508  0.67825509  0.18188142     0.04400
C1226       C  0.15330104  0.68147098  0.16415147    -0.24400
H1227       H  0.10720888  0.68919944  0.06991332     0.09500
H1228       H  0.10328829  0.68984254  0.12574424     0.13100
H1229       H  0.21276051  0.66887800  0.07182419     0.13000
H1230       H  0.24000916  0.67121639  0.12242636     0.12800
H1231       H  0.23605043  0.67710397  0.17872187     0.13300
H1232       H  0.12918390  0.68566655  0.17550645     0.15300
C1233       C  0.10307265  0.83567445  0.23770072    -0.04800
C1234       C  0.07840897  0.84097202  0.21585961    -0.04700
C1235       C  0.05216998  0.81937103  0.21244500    -0.22900
C1236       C  0.05016643  0.79187128  0.23069541     0.19400
C1237       C  0.07524138  0.78590311  0.25230391     0.16600
C1238       C  0.10145643  0.80794552  0.25578266    -0.17900
C1239       C  0.07328363  0.75826825  0.27040463    -0.19700
C1240       C  0.04604024  0.73759584  0.26816467    -0.12300
C1241       C  0.02046390  0.74389383  0.24751966     0.04400
C1242       C  0.02308936  0.77069224  0.22827864    -0.24400
H1243       H  0.07907415  0.86233887  0.20184595     0.09500
H1244       H  0.03323959  0.82438450  0.19579538     0.13100
H1245       H  0.12060301  0.80360256  0.27241577     0.13000
H1246       H  0.09243461  0.75300817  0.28678685     0.12800
H1247       H  0.04460881  0.71681791  0.28291848     0.13300
H1248       H  0.50329005  0.77578793  0.21251247     0.15300
C1249       C  0.09540701  0.82459307  0.00003569    -0.04800
C1250       C  0.09623402  0.80531340  0.52655358    -0.04700
C1251       C  0.07685820  0.77755547  0.52886927    -0.22900
C1252       C  0.05620883  0.76842935  0.50474284     0.19400
C1253       C  0.05695270  0.78619435  0.97713088     0.16600
C1254       C  0.07665817  0.81396045  0.97485710    -0.17900
C1255       C  0.03655203  0.77692873  0.95288213    -0.19700
C1256       C  0.01386469  0.75186573  0.95674954    -0.12300
C1257       C  0.01133725  0.73520014  0.98485653     0.04400
C1258       C  0.03370834  0.74284972  0.50831882    -0.24400
H1259       H  0.11128573  0.81191665  0.54596028     0.09500
H1260       H  0.07716421  0.76387200  0.54998964     0.13100
H1261       H  0.07567212  0.82830108  0.95421297     0.13000
H1262       H  0.03700740  0.79004605  0.93139710     0.12800
H1263       H  0.99709082  0.74685960  0.93819142     0.13300
H1264       H  0.53277640  0.72980230  0.52981034     0.15300
C1265       C  0.42167380  0.67761963  0.31952890    -0.04800
C1266       C  0.42506592  0.70783059  0.33446261    -0.04700
C1267       C  0.42178438  0.71104637  0.36664116    -0.22900
C1268       C  0.41435213  0.68422524  0.38473259     0.19400
C1269       C  0.40944546  0.65399968  0.37018240     0.16600
C1270       C  0.41250933  0.65100047  0.33772521    -0.17900
C1271       C  0.40142596  0.62735333  0.38840669    -0.19700
C1272       C  0.40035252  0.63021515  0.42076551    -0.12300
C1273       C  0.40730259  0.65980283  0.43565421     0.04400
C1274       C  0.41202224  0.68712772  0.41714835    -0.24400
H1275       H  0.42957734  0.72930958  0.32120150     0.09500
H1276       H  0.42501496  0.73456861  0.37737294     0.13100
H1277       H  0.40760656  0.62793975  0.32668643     0.13000
H1278       H  0.39661631  0.60411906  0.37766142     0.12800
H1279       H  0.39419440  0.60910729  0.43402679     0.13300
H1280       H  0.41529400  0.71055359  0.42806332     0.15300
C1281       C  0.41809750  0.66716909  0.18612145    -0.04800
C1282       C  0.40509248  0.63815210  0.17419395    -0.04700
C1283       C  0.40113010  0.63338591  0.14247064    -0.22900
C1284       C  0.40904042  0.65790857  0.12177010     0.19400
C1285       C  0.41922414  0.68819182  0.13341148     0.16600
C1286       C  0.42346695  0.69276501  0.16551700    -0.17900
C1287       C  0.42486912  0.71330183  0.11265424    -0.19700
C1288       C  0.42237107  0.70785151  0.08071661    -0.12300
C1289       C  0.41542330  0.67692705  0.06859604     0.04400
C1290       C  0.40701642  0.65251087  0.08963974    -0.24400
H1291       H  0.39829485  0.61872018  0.18948722     0.09500
H1292       H  0.39213873  0.61035387  0.13411935     0.13100
H1293       H  0.43058263  0.71621196  0.17433811     0.13000
H1294       H  0.43146501  0.73709459  0.12106668     0.12800
H1295       H  0.42625005  0.72790928  0.06540077     0.13300
H1296       H  0.39897711  0.62921767  0.08113651     0.15300
C1297       C  0.41446986  0.67103246  0.53346688     0.30500
C1298       C  0.41015709  0.66282646  0.97090927     0.30500
C1299       C  0.38191910  0.68243216  0.51960568    -0.05700
C1300       C  0.44159972  0.68785746  0.51360321    -0.06500
C1301       C  0.41796816  0.63578727  0.52153016    -0.06400
C1302       C  0.37976459  0.67853913  0.98750527    -0.05700
C1303       C  0.43934820  0.68341823  0.98185095    -0.06500
C1304       C  0.41579320  0.63155017  0.98891224    -0.06400
C1305       C  0.35809098  0.70205900  0.97799003    -0.31800
N1306       N  0.34653398  0.71916265  0.00308529     0.14700
C1307       C  0.36111531  0.70765216  0.52843955    -0.31800
H1308       H  0.35968244  0.71918238  0.55111140     0.16700
C1309       C  0.46619028  0.69846293  0.96804948    -0.30700
N1310       N  0.48433144  0.71292160  0.49033941     0.13500
C1311       C  0.46976283  0.70605158  0.51833514    -0.30700
C1312       C  0.43880968  0.60776507  0.98051403    -0.31000
N1313       N  0.45420925  0.59727462  0.00572519     0.14000
H1314       H  0.44805321  0.60280838  0.95708491     0.16600
C1315       C  0.44189519  0.61403478  0.53060390    -0.31000
H1316       H  0.45380035  0.61473583  0.55274397     0.16600
H1317       H  0.47853574  0.71430620  0.54050554     0.16600
H1318       H  0.35374609  0.70839089  0.95426088     0.16700
H1319       H  0.47214235  0.69874904  0.94349772     0.16600
C1320       C  0.42180190  0.67112334  0.72118839     0.30500
C1321       C  0.42302654  0.67498160  0.78415241     0.30500
C1322       C  0.43227506  0.63998165  0.73738760    -0.05700
C1323       C  0.44659171  0.69590271  0.73437386    -0.06500
C1324       C  0.38868545  0.68055695  0.73767425    -0.06400
C1325       C  0.43271604  0.64185641  0.76990644    -0.05700
C1326       C  0.44722433  0.69742776  0.76667610    -0.06500
C1327       C  0.38930344  0.68272343  0.77014248    -0.06400
C1328       C  0.45778274  0.62110897  0.77859911    -0.31800
N1329       N  0.47184199  0.60637648  0.75318120     0.14700
C1330       C  0.45708085  0.61826456  0.72806881    -0.31800
H1331       H  0.46647297  0.61458441  0.70449477     0.16700
C1332       C  0.47494089  0.71467996  0.77451049    -0.30700
N1333       N  0.49061266  0.72480411  0.74824051     0.13500
C1334       C  0.47382429  0.71326147  0.72351236    -0.30700
C1335       C  0.36710254  0.70699842  0.77916060    -0.31000
N1336       N  0.35321758  0.71936098  0.75386518     0.14000
H1337       H  0.36522632  0.71817966  0.80198266     0.16600
C1338       C  0.36625920  0.70360235  0.72864527    -0.31000
H1339       H  0.36367147  0.71163476  0.70513380     0.16600
H1340       H  0.48219452  0.71556342  0.69961650     0.16600
H1341       H  0.46790238  0.62005860  0.80149620     0.16700
H1342       H  0.48389436  0.71863547  0.79763434     0.16600
C1343       C  0.16108058  0.67473425  0.53065291     0.30500
C1344       C  0.15924701  0.67752096  0.96776043     0.30500
C1345       C  0.16990651  0.70744104  0.51692917    -0.05700
C1346       C  0.18510876  0.65135044  0.51254055    -0.06500
C1347       C  0.12742130  0.66640096  0.51660936    -0.06400
C1348       C  0.16919934  0.70895938  0.98445031    -0.05700
C1349       C  0.18402208  0.65280266  0.98030217    -0.06500
C1350       C  0.12636965  0.66747318  0.98426446    -0.06400
C1351       C  0.19378382  0.73061852  0.97578165    -0.31800
N1352       N  0.20861078  0.74245399  0.00126134     0.14700
C1353       C  0.19454011  0.72828071  0.52627649    -0.31800
H1354       H  0.20450549  0.72969385  0.54925928     0.16700
C1355       C  0.20583357  0.62978506  0.96811624    -0.30700
N1356       N  0.22042559  0.61456206  0.49187275     0.13500
C1357       C  0.20772133  0.62744102  0.51901996    -0.30700
C1358       C  0.10450838  0.64327025  0.97564660    -0.31000
N1359       N  0.09148069  0.62908161  0.00113869     0.14000
H1360       H  0.10186803  0.63371857  0.95237293     0.16600
C1361       C  0.10586084  0.64240068  0.52595372    -0.31000
H1362       H  0.10453874  0.63213863  0.54882213     0.16600
H1363       H  0.21389191  0.61940448  0.54182902     0.16600
H1364       H  0.20294705  0.73447575  0.95232856     0.16700
H1365       H  0.21081548  0.62457004  0.94379753     0.16600
C1366       C  0.17753544  0.68102570  0.78058499     0.30500
C1367       C  0.17947147  0.67860227  0.71737885     0.30500
C1368       C  0.18611398  0.71277812  0.76458070    -0.05700
C1369       C  0.20236135  0.65701703  0.76534889    -0.06500
C1370       C  0.14454493  0.67059313  0.76582221    -0.06400
C1371       C  0.18742081  0.71154198  0.73214763    -0.05700
C1372       C  0.20347743  0.65572232  0.73325700    -0.06500
C1373       C  0.14548772  0.66939629  0.73298872    -0.06400
C1374       C  0.21001897  0.73485584  0.72284702    -0.31800
N1375       N  0.22145612  0.75061092  0.74810653     0.14700
C1376       C  0.20726251  0.73711201  0.77352370    -0.31800
H1377       H  0.21517451  0.74173203  0.79690351     0.16700
C1378       C  0.22797345  0.63381688  0.72439487    -0.30700
N1379       N  0.24207582  0.62262300  0.75026914     0.13500
C1380       C  0.22597848  0.63594703  0.77536233    -0.30700
C1381       C  0.12424740  0.64460261  0.72463172    -0.31000
N1382       N  0.11017034  0.63138323  0.75023449     0.14000
H1383       H  0.12264605  0.63410313  0.70162631     0.16600
C1384       C  0.12306178  0.64627210  0.77519429    -0.31000
H1385       H  0.12053350  0.63712244  0.79843930     0.16600
H1386       H  0.23141228  0.63077253  0.79913858     0.16600
H1387       H  0.22055556  0.73727447  0.69964728     0.16700
H1388       H  0.23580627  0.62716440  0.70098490     0.16600
C1389       C  0.41856991  0.91883631  0.53493080     0.30500
C1390       C  0.42212223  0.91891395  0.97178522     0.30500
C1391       C  0.40961477  0.88688544  0.51883498    -0.05700
C1392       C  0.39564435  0.94331110  0.51946814    -0.06500
C1393       C  0.45292338  0.92764544  0.52069777    -0.06400
C1394       C  0.41115824  0.88691461  0.98626562    -0.05700
C1395       C  0.39729374  0.94356514  0.98714969    -0.06500
C1396       C  0.45466835  0.92741108  0.98813960    -0.06400
C1397       C  0.38639515  0.86605677  0.97674399    -0.31800
N1398       N  0.37095298  0.85286989  0.00178985     0.14700
C1399       C  0.38470826  0.86559559  0.52736143    -0.31800
H1400       H  0.37450148  0.86268300  0.55061574     0.16700
C1401       C  0.37705805  0.96876245  0.97837861    -0.30700
N1402       N  0.36300256  0.98310326  0.50423485     0.13500
C1403       C  0.37464094  0.96794927  0.52936123    -0.30700
C1404       C  0.47699814  0.95112623  0.97965573    -0.31000
N1405       N  0.48889024  0.96570355  0.00514523     0.14000
H1406       H  0.48031370  0.96037605  0.95649894     0.16600
C1407       C  0.47396275  0.95219156  0.53014789    -0.31000
H1408       H  0.47444666  0.96256296  0.55331013     0.16600
H1409       H  0.36853564  0.97464642  0.55317672     0.16600
H1410       H  0.37758253  0.86383931  0.95337232     0.16700
H1411       H  0.37386038  0.97725360  0.95517312     0.16600
C1412       C  0.42738982  0.92649878  0.78355281     0.30500
C1413       C  0.43602591  0.91884278  0.72092036     0.30500
C1414       C  0.42158426  0.89234519  0.77057041    -0.05700
C1415       C  0.40514462  0.94768486  0.76373080    -0.06500
C1416       C  0.46257527  0.93488346  0.77050930    -0.06400
C1417       C  0.42616579  0.88844178  0.73840027    -0.05700
C1418       C  0.40955592  0.94351003  0.73192176    -0.06500
C1419       C  0.46701428  0.93114615  0.73794296    -0.06400
C1420       C  0.40535734  0.86391977  0.72935862    -0.31800
N1421       N  0.38842114  0.85282000  0.75444874     0.14700
C1422       C  0.39782075  0.87012688  0.77953068    -0.31800
H1423       H  0.38474859  0.87000663  0.80184205     0.16700
C1424       C  0.39275857  0.96795363  0.71803631    -0.30700
N1425       N  0.37785632  0.98666764  0.74041327     0.13500
C1426       C  0.38619219  0.97524854  0.76837774    -0.30700
C1427       C  0.48901650  0.95509705  0.72884161    -0.31000
N1428       N  0.49895903  0.97205195  0.75394025     0.14000
H1429       H  0.49411017  0.96220263  0.70519631     0.16600
C1430       C  0.48254406  0.96041622  0.77915974    -0.31000
H1431       H  0.48164514  0.97234580  0.80165308     0.16600
H1432       H  0.37953019  0.98671813  0.79039222     0.16600
H1433       H  0.39934949  0.85795473  0.70569355     0.16700
H1434       H  0.39256539  0.97278641  0.69353721     0.16600
C1435       C  0.16073960  0.92294515  0.96835315     0.30500
C1436       C  0.15945436  0.92345524  0.53153083     0.30500
C1437       C  0.15598561  0.95629942  0.98443210    -0.05700
C1438       C  0.13334426  0.90231422  0.98371532    -0.06500
C1439       C  0.19266094  0.90976060  0.98331243    -0.06400
C1440       C  0.15505730  0.95625293  0.51691175    -0.05700
C1441       C  0.13280552  0.90249203  0.51614464    -0.06500
C1442       C  0.19192643  0.91075409  0.51593551    -0.06400
C1443       C  0.13429020  0.98113008  0.52679924    -0.31800
N1444       N  0.12311058  0.99663182  0.00192107     0.14700
C1445       C  0.13651535  0.98214956  0.97617926    -0.31800
H1446       H  0.12870425  0.98732560  0.95306188     0.16700
C1447       C  0.11963417  0.87336567  0.52505447    -0.30700
N1448       N  0.11099717  0.85594467  0.49974130     0.13500
C1449       C  0.12019160  0.87308637  0.97442493    -0.30700
C1450       C  0.21401544  0.88783416  0.52570589    -0.31000
N1451       N  0.22845838  0.87305466  0.00064934     0.14000
H1452       H  0.21678680  0.88013722  0.54929875     0.16600
C1453       C  0.21426589  0.88457767  0.97509188    -0.31000
H1454       H  0.21673221  0.87251616  0.95278644     0.16600
H1455       H  0.12031020  0.86388685  0.95083592     0.16600
H1456       H  0.12377139  0.98417041  0.55006092     0.16700
H1457       H  0.11851869  0.86480970  0.54851427     0.16600
C1458       C  0.18097668  0.92244208  0.77990556     0.30500
C1459       C  0.18378254  0.92672586  0.71659095     0.30500
C1460       C  0.21697573  0.92136266  0.76428438    -0.05700
C1461       C  0.16210410  0.89627484  0.76167507    -0.06500
C1462       C  0.16692192  0.95404615  0.76650036    -0.06400
C1463       C  0.21753217  0.92123732  0.73147410    -0.05700
C1464       C  0.16369768  0.89862455  0.72960971    -0.06500
C1465       C  0.16872802  0.95583771  0.73427734    -0.06400
C1466       C  0.24127918  0.89837998  0.72191915    -0.31800
N1467       N  0.25700076  0.88717002  0.74667876     0.14700
C1468       C  0.24439569  0.90295076  0.77188210    -0.31800
H1469       H  0.25378543  0.89930621  0.79467373     0.16700
C1470       C  0.14399127  0.87490653  0.71756568    -0.30700
N1471       N  0.12946906  0.85866827  0.74126019     0.13500
C1472       C  0.14058234  0.87123061  0.76839508    -0.30700
C1473       C  0.14860107  0.98088559  0.72574334    -0.31000
N1474       N  0.13472546  0.99494376  0.75159343     0.14000
H1475       H  0.14192251  0.98637767  0.70231683     0.16600
C1476       C  0.14617217  0.97929268  0.77661424    -0.31000
H1477       H  0.13783528  0.98473518  0.80009796     0.16600
H1478       H  0.13207898  0.86403380  0.79124306     0.16600
H1479       H  0.24268313  0.88681277  0.69923521     0.16700
H1480       H  0.13948998  0.87030267  0.69332787     0.16600
O1481       O  0.99820659  0.57205704  0.53043328    -0.74000
O1482       O  0.08028233  0.52506685  0.52859998    -0.74000
O1483       O  0.06362308  0.58813653  0.52801812    -0.74000
O1484       O  0.01506693  0.50883987  0.53055801    -0.74100
O1485       O  0.01573612  0.50743588  0.97892674    -0.74000
O1486       O  0.06347078  0.58684521  0.97640193    -0.74000
O1487       O  0.08070567  0.52387338  0.97695600    -0.74000
O1488       O  0.99809604  0.57032837  0.97881902    -0.74000
Ni1489     Ni  0.03929780  0.54864320  0.53124714     1.25400
Ni1490     Ni  0.03948458  0.54710558  0.97594089     1.25400
C1491       C  0.98456167  0.57890567  0.00497348     0.88200
C1492       C  0.09377203  0.51630833  0.00254289     0.88200
C1493       C  0.07189408  0.60032932  0.00183391     0.88200
C1494       C  0.00742315  0.49504598  0.00496922     0.88400
O1495       O  0.09345356  0.52640646  0.77780023    -0.74000
O1496       O  0.01413059  0.57860132  0.77834127    -0.74000
O1497       O  0.02702229  0.51435661  0.77886518    -0.74000
O1498       O  0.08069669  0.59091493  0.77698707    -0.74100
O1499       O  0.08118998  0.58949584  0.72539383    -0.74000
O1500       O  0.02814341  0.51257540  0.72725930    -0.74000
O1501       O  0.01463713  0.57688967  0.72674039    -0.74000
O1502       O  0.09447144  0.52514024  0.72619019    -0.74000
Ni1503     Ni  0.05382274  0.55267937  0.77979778     1.25400
Ni1504     Ni  0.05464957  0.55100506  0.72455775     1.25400
C1505       C  0.10670222  0.51661352  0.75192748     0.88200
C1506       C  0.00128162  0.58639855  0.75271556     0.88200
C1507       C  0.01881191  0.50075406  0.75333534     0.88200
C1508       C  0.08984941  0.60284561  0.75088945     0.88400
O1509       O  0.26021692  0.83550245  0.52711982    -0.74000
O1510       O  0.31643070  0.76099584  0.52817340    -0.74000
O1511       O  0.32736643  0.82528396  0.52751429    -0.74000
O1512       O  0.24978962  0.77140812  0.52735298    -0.74100
O1513       O  0.25192920  0.77022662  0.97571097    -0.74000
O1514       O  0.32968562  0.82367944  0.97589710    -0.74000
O1515       O  0.31846779  0.75932430  0.97652021    -0.74000
O1516       O  0.26259432  0.83414720  0.97547136    -0.74000
Ni1517     Ni  0.28844096  0.79840469  0.52939434     1.25400
Ni1518     Ni  0.29083146  0.79684918  0.97408094     1.25400
C1519       C  0.25140595  0.84656650  0.00111773     0.88200
C1520       C  0.32634626  0.74763333  0.00255204     0.88200
C1521       C  0.34151727  0.83316441  0.00170778     0.88200
C1522       C  0.23792353  0.76215441  0.00144776     0.88400
O1523       O  0.32535561  0.76331358  0.77834811    -0.74000
O1524       O  0.27946989  0.84434457  0.77429396    -0.74000
O1525       O  0.26084132  0.78106351  0.77480359    -0.74000
O1526       O  0.34350726  0.82621925  0.77844732    -0.74100
O1527       O  0.34812934  0.82441133  0.72687448    -0.74000
O1528       O  0.26522595  0.77886762  0.72324944    -0.74000
O1529       O  0.28375303  0.84230382  0.72273046    -0.74000
O1530       O  0.32975406  0.76167078  0.72676529    -0.74000
Ni1531     Ni  0.30203340  0.80381689  0.77830720     1.25400
Ni1532     Ni  0.30684460  0.80176518  0.72307811     1.25400
C1533       C  0.33515235  0.74917241  0.75302353     0.88200
C1534       C  0.27455769  0.85698044  0.74789864     0.88200
C1535       C  0.24998085  0.77143330  0.74864610     0.88200
C1536       C  0.35912595  0.83330800  0.75323499     0.88400
C1537       C  0.17867387  0.91781681  0.81543138    -0.04800
C1538       C  0.20091592  0.89685447  0.82975809    -0.04700
C1539       C  0.20545086  0.89842333  0.86155118    -0.22900
C1540       C  0.18235239  0.91513529  0.88058944     0.19400
C1541       C  0.15372835  0.92819714  0.86737604     0.16600
C1542       C  0.15239746  0.93048832  0.83474507    -0.17900
C1543       C  0.12682465  0.93751996  0.88706199    -0.19700
C1544       C  0.12881201  0.93394643  0.91923149    -0.12300
C1545       C  0.15884797  0.92433670  0.93282015     0.04400
C1546       C  0.18597027  0.91610325  0.91276833    -0.24400
H1547       H  0.21385360  0.87795200  0.81686018     0.09500
H1548       H  0.22513489  0.88435437  0.87142290     0.13100
H1549       H  0.13041292  0.94037911  0.82475234     0.13000
H1550       H  0.10390460  0.94636323  0.87761036     0.12800
H1551       H  0.10690076  0.93938399  0.93364920     0.13300
H1552       H  0.21001074  0.91040359  0.92146181     0.15300
C1553       C  0.15821303  0.92507118  0.56693082    -0.04800
C1554       C  0.12783030  0.92111882  0.58369423    -0.04700
C1555       C  0.12659136  0.92221179  0.61602070    -0.22900
C1556       C  0.15563681  0.92776230  0.63240369     0.19400
C1557       C  0.18595390  0.93350434  0.61600355     0.16600
C1558       C  0.18688037  0.93293504  0.58346863    -0.17900
C1559       C  0.21488518  0.93943304  0.63246766    -0.19700
C1560       C  0.21418018  0.93785055  0.66476317    -0.12300
C1561       C  0.18448421  0.93031177  0.68138712     0.04400
C1562       C  0.15489988  0.92732753  0.66488632    -0.24400
H1563       H  0.10474665  0.91737451  0.57184004     0.03900
H1564       H  0.10296401  0.91837827  0.62820265     0.13100
H1565       H  0.21009212  0.93800840  0.57104577     0.13000
H1566       H  0.23823940  0.94471144  0.62034995     0.12800
H1567       H  0.23702513  0.94269785  0.67659441     0.13300
H1568       H  0.13135063  0.92384509  0.67731609     0.15300
C1569       C  0.42157765  0.92883297  0.81883949    -0.04800
C1570       C  0.38983442  0.93690029  0.83187677    -0.04700
C1571       C  0.38369126  0.93719020  0.86389774    -0.22900
C1572       C  0.40849621  0.92752043  0.88386395     0.19400
C1573       C  0.43982041  0.91740188  0.87123989     0.16600
C1574       C  0.44623648  0.91825228  0.83895819    -0.17900
C1575       C  0.46379838  0.90561903  0.89107613    -0.19700
C1576       C  0.45717586  0.90486687  0.92303572    -0.12300
C1577       C  0.42695411  0.91713686  0.93632051     0.04400
C1578       C  0.40211426  0.92697818  0.91613283    -0.24400
H1579       H  0.36899292  0.94176591  0.81742918     0.09500
H1580       H  0.35913532  0.94405701  0.87297025     0.13100
H1581       H  0.47015138  0.91001150  0.82942421     0.13000
H1582       H  0.48768324  0.89687808  0.88189362     0.12800
H1583       H  0.47628755  0.89536085  0.93755908     0.13300
H1584       H  0.37755525  0.93340131  0.92521499     0.15300
C1585       C  0.43857481  0.91370864  0.68573240    -0.04800
C1586       C  0.46934805  0.90788914  0.67012989    -0.04700
C1587       C  0.47140896  0.90586598  0.63772251    -0.22900
C1588       C  0.44275839  0.90994214  0.62027638     0.19400
C1589       C  0.41142707  0.91347182  0.63568641     0.16600
C1590       C  0.40942303  0.91394822  0.66815969    -0.17900
C1591       C  0.38269727  0.91712765  0.61838002    -0.19700
C1592       C  0.38517386  0.91869161  0.58610947    -0.12300
C1593       C  0.41641490  0.91705539  0.57033900     0.04400
C1594       C  0.44497646  0.91101830  0.58776496    -0.24400
H1595       H  0.49194312  0.90522896  0.68292244     0.09500
H1596       H  0.49557368  0.90213400  0.62629697     0.13100
H1597       H  0.38512946  0.91585446  0.67975679     0.13000
H1598       H  0.35832915  0.91928596  0.62981822     0.12800
H1599       H  0.36248311  0.92114268  0.57342687     0.13300
H1600       H  0.46905640  0.90734924  0.57619803     0.15300
C1601       C  0.35506037  0.51229634  0.73518251    -0.04800
C1602       C  0.33409520  0.01101274  0.70973883    -0.04700
C1603       C  0.30872958  0.53338910  0.70667896    -0.22900
C1604       C  0.30377932  0.55766609  0.72922911     0.19400
C1605       C  0.32566673  0.56025993  0.75419813     0.16600
C1606       C  0.35140530  0.53775369  0.75682399    -0.17900
C1607       C  0.32066393  0.58457741  0.77673081    -0.19700
C1608       C  0.29335202  0.60528713  0.77522508    -0.12300
C1609       C  0.27078976  0.60205494  0.75108633     0.04400
C1610       C  0.27660700  0.57866602  0.72777235    -0.24400
H1611       H  0.33631517  0.99141642  0.69292025     0.09500
H1612       H  0.29223517  0.03134610  0.68735362     0.13100
H1613       H  0.36788473  0.53943992  0.77617451     0.13000
H1614       H  0.33746242  0.58719020  0.79579476     0.12800
H1615       H  0.28988112  0.62387811  0.79291570     0.13300
H1616       H  0.25930909  0.57604289  0.70912014     0.15300
C1617       C  0.33984655  0.50949621  0.50535668    -0.04800
C1618       C  0.33997401  0.03230968  0.53011286    -0.04700
C1619       C  0.31688241  0.55724188  0.53208848    -0.22900
C1620       C  0.29317862  0.56078439  0.50921127     0.19400
C1621       C  0.29296749  0.53873723  0.48391197     0.16600
C1622       C  0.31638400  0.51330745  0.98206425    -0.17900
C1623       C  0.26908633  0.54234614  0.96113439    -0.19700
C1624       C  0.24546953  0.56732534  0.96358843    -0.12300
C1625       C  0.24520272  0.58917813  0.48889378     0.04400
C1626       C  0.26947603  0.58582445  0.51146450    -0.24400
H1627       H  0.35796240  0.03021025  0.54813699     0.09500
H1628       H  0.31752393  0.07437945  0.55157507     0.13100
H1629       H  0.31582331  0.49605656  0.96297342     0.13000
H1630       H  0.26847502  0.52568335  0.94156712     0.12800
H1631       H  0.22698767  0.56916535  0.94596273     0.13300
H1632       H  0.27000648  0.60280418  0.53075981     0.15300
C1633       C  0.15719411  0.68073518  0.93259649    -0.04800
C1634       C  0.12616332  0.68526897  0.91863561    -0.04700
C1635       C  0.12381582  0.68633836  0.88655015    -0.22900
C1636       C  0.15258337  0.68460256  0.86752762     0.19400
C1637       C  0.18413293  0.68314327  0.88114084     0.16600
C1638       C  0.18628348  0.68123231  0.91350452    -0.17900
C1639       C  0.21295610  0.68395959  0.86211851    -0.19700
C1640       C  0.21043066  0.68481091  0.82998736    -0.12300
C1641       C  0.17914460  0.68319292  0.81592034     0.04400
C1642       C  0.15024401  0.68469952  0.83515346    -0.24400
H1643       H  0.10333575  0.68811147  0.93239153     0.09500
H1644       H  0.09944639  0.68870220  0.87664076     0.13100
H1645       H  0.21053374  0.67997710  0.92379506     0.13000
H1646       H  0.23744254  0.68395270  0.87204531     0.12800
H1647       H  0.23322594  0.68608065  0.81599337     0.13300
H1648       H  0.12591658  0.68643548  0.82515281     0.15300
C1649       C  0.15980221  0.67552710  0.56617106    -0.04800
C1650       C  0.12954122  0.68356646  0.58219797    -0.04700
C1651       C  0.12723910  0.68468099  0.61438481    -0.22900
C1652       C  0.15563653  0.68012658  0.63166007     0.19400
C1653       C  0.18684915  0.67504819  0.61620940     0.16600
C1654       C  0.18876263  0.67242258  0.58358029    -0.17900
C1655       C  0.21561941  0.67378592  0.63372202    -0.19700
C1656       C  0.21321514  0.67653931  0.66606446    -0.12300
C1657       C  0.18189556  0.67824749  0.68188254     0.04400
C1658       C  0.15330145  0.68146142  0.66415235    -0.24400
H1659       H  0.10720784  0.68919287  0.56991559     0.09500
H1660       H  0.10328769  0.68982922  0.62574606     0.13100
H1661       H  0.21276173  0.66888084  0.57182360     0.13000
H1662       H  0.24001041  0.67121633  0.62242692     0.12800
H1663       H  0.23605098  0.67709768  0.67872331     0.13300
H1664       H  0.12918387  0.68565461  0.67550722     0.15300
C1665       C  0.10307491  0.83567602  0.73770299    -0.04800
C1666       C  0.07840620  0.84097914  0.71586814    -0.04700
C1667       C  0.05216413  0.81938120  0.71245668    -0.22900
C1668       C  0.05016277  0.79187895  0.73070375     0.19400
C1669       C  0.07524274  0.78590520  0.75230590     0.16600
C1670       C  0.10146092  0.80794461  0.75578157    -0.17900
C1671       C  0.07328669  0.75826803  0.77040359    -0.19700
C1672       C  0.04604105  0.73759799  0.76816614    -0.12300
C1673       C  0.02046120  0.74390058  0.74752620     0.04400
C1674       C  0.02308359  0.77070235  0.72828942    -0.24400
H1675       H  0.07906989  0.86234815  0.70185748     0.09500
H1676       H  0.03322973  0.82439895  0.69581209     0.13100
H1677       H  0.12061133  0.80359773  0.77241000     0.13000
H1678       H  0.09244120  0.75300393  0.78678115     0.12800
H1679       H  0.04461128  0.71681769  0.78291697     0.13300
H1680       H  0.50329248  0.77577988  0.71250977     0.15300
C1681       C  0.09540292  0.82459582  0.50004219    -0.04800
C1682       C  0.09624514  0.80530562  0.02654317    -0.04700
C1683       C  0.07686827  0.77754825  0.02885924    -0.22900
C1684       C  0.05621069  0.76842793  0.00473696     0.19400
C1685       C  0.05695842  0.78619027  0.47713350     0.16600
C1686       C  0.07666258  0.81395711  0.47486019    -0.17900
C1687       C  0.03656614  0.77691859  0.45288060    -0.19700
C1688       C  0.01387791  0.75185623  0.45674705    -0.12300
C1689       C  0.01134151  0.73519726  0.48485740     0.04400
C1690       C  0.03371021  0.74284819  0.00831407    -0.24400
H1691       H  0.11130350  0.81190480  0.04594664     0.09500
H1692       H  0.07718021  0.76386061  0.04997673     0.13100
H1693       H  0.07568173  0.82829339  0.45421295     0.13000
H1694       H  0.03702806  0.79003124  0.43139279     0.12800
H1695       H  0.99711006  0.74684628  0.43818515     0.13300
H1696       H  0.53277542  0.72979845  0.02981259     0.15300
C1697       C  0.42167638  0.67761285  0.81953016    -0.04800
C1698       C  0.42506664  0.70782398  0.83446393    -0.04700
C1699       C  0.42178450  0.71103978  0.86664246    -0.22900
C1700       C  0.41435387  0.68421835  0.88473403     0.19400
C1701       C  0.40945009  0.65399222  0.87018396     0.16600
C1702       C  0.41251449  0.65099297  0.83772674    -0.17900
C1703       C  0.40143186  0.62734561  0.88840835    -0.19700
C1704       C  0.40035593  0.63020803  0.92076714    -0.12300
C1705       C  0.40730299  0.65979648  0.93565587     0.04400
C1706       C  0.41202225  0.68712122  0.91714977    -0.24400
H1707       H  0.42957707  0.72930312  0.82120269     0.09500
H1708       H  0.42501304  0.73456236  0.87737414     0.13100
H1709       H  0.40761326  0.62793181  0.82668818     0.13000
H1710       H  0.39662434  0.60411080  0.87766317     0.12800
H1711       H  0.39419791  0.60910010  0.93402828     0.13300
H1712       H  0.41529220  0.71054744  0.92806466     0.15300
C1713       C  0.41810189  0.66716528  0.68612118    -0.04800
C1714       C  0.40510186  0.63814708  0.67419148    -0.04700
C1715       C  0.40114045  0.63338229  0.64246783    -0.22900
C1716       C  0.40904697  0.65790729  0.62176868     0.19400
C1717       C  0.41922635  0.68819119  0.63341184     0.16600
C1718       C  0.42346778  0.69276324  0.66551800    -0.17900
C1719       C  0.42486874  0.71330279  0.61265564    -0.19700
C1720       C  0.42237207  0.70785370  0.58071744    -0.12300
C1721       C  0.41542690  0.67692934  0.56859515     0.04400
C1722       C  0.40702328  0.65251115  0.58963794    -0.24400
H1723       H  0.39830684  0.61871311  0.68948328     0.09500
H1724       H  0.39215275  0.61034937  0.63411513     0.13100
H1725       H  0.43058018  0.71621056  0.67434059     0.13000
H1726       H  0.43146181  0.73709585  0.62106931     0.12800
H1727       H  0.42624993  0.72791238  0.56540249     0.13300
H1728       H  0.39898632  0.62921756  0.58113382     0.15300
C1729       C  0.91430291  0.17062414  0.03366810     0.30500
C1730       C  0.90991602  0.16243705  0.47111952     0.30500
C1731       C  0.88176623  0.18210330  0.01983226    -0.05700
C1732       C  0.94147029  0.18738824  0.01378478    -0.06500
C1733       C  0.91771738  0.13537234  0.02172934    -0.06400
C1734       C  0.87958042  0.17820735  0.48773588    -0.05700
C1735       C  0.93917426  0.18294735  0.48203554    -0.06500
C1736       C  0.91550008  0.13114846  0.48910439    -0.06400
C1737       C  0.85796571  0.20176368  0.47821061    -0.31800
N1738       N  0.84648028  0.21892485  0.50329082     0.14700
C1739       C  0.86105360  0.20740437  0.02864953    -0.31800
H1740       H  0.85967908  0.21897005  0.05130677     0.16700
C1741       C  0.96617827  0.19768558  0.46820221    -0.30700
N1742       N  0.98447237  0.21200969  0.99045730     0.13500
C1743       C  0.96982501  0.20532826  0.01847374    -0.30700
C1744       C  0.93853189  0.10739464  0.48066393    -0.31000
N1745       N  0.95402319  0.09695158  0.50584222     0.14000
H1746       H  0.94774370  0.10247653  0.45721903     0.16600
C1747       C  0.94169209  0.11364933  0.03075730    -0.31000
H1748       H  0.95364319  0.11438243  0.05287623     0.16600
H1749       H  0.97870759  0.21348733  0.04063716     0.16600
H1750       H  0.85362111  0.20807841  0.45447740     0.16700
H1751       H  0.97215939  0.19778929  0.44365188     0.16600
C1752       C  0.92128660  0.17068655  0.22139664     0.30500
C1753       C  0.92264157  0.17461499  0.28434145     0.30500
C1754       C  0.93175498  0.13954977  0.23759885    -0.05700
C1755       C  0.94614206  0.19544791  0.23450459    -0.06500
C1756       C  0.88821305  0.18019506  0.23791336    -0.06400
C1757       C  0.93227145  0.14146110  0.27011732    -0.05700
C1758       C  0.94684673  0.19701979  0.26680398    -0.06500
C1759       C  0.88889673  0.18240079  0.27037868    -0.06400
C1760       C  0.95742536  0.12078437  0.27876936    -0.31800
N1761       N  0.97148760  0.10608546  0.25333299     0.14700
C1762       C  0.95660468  0.11789097  0.22825020    -0.31800
H1763       H  0.96596576  0.11424302  0.20466320     0.16700
C1764       C  0.97472923  0.21408581  0.27454253    -0.30700
N1765       N  0.99041175  0.22406939  0.24822127     0.13500
C1766       C  0.97349163  0.21258400  0.22355615    -0.30700
C1767       C  0.86681002  0.20678198  0.27938433    -0.31000
N1768       N  0.85293116  0.21916771  0.25409378     0.14000
H1769       H  0.86503294  0.21801175  0.30219075     0.16600
C1770       C  0.86585912  0.20331294  0.22888264    -0.31000
H1771       H  0.86326750  0.21132189  0.20536256     0.16600
H1772       H  0.98185570  0.21474842  0.19964467     0.16600
H1773       H  0.96761889  0.11980657  0.30164134     0.16700
H1774       H  0.98378928  0.21799038  0.29763414     0.16600
C1775       C  0.66082037  0.17493060  0.03081620     0.30500
C1776       C  0.65901811  0.17772498  0.46792436     0.30500
C1777       C  0.66969933  0.20762685  0.01708901    -0.05700
C1778       C  0.68483843  0.15151884  0.01271900    -0.06500
C1779       C  0.62715491  0.16663284  0.01675353    -0.06400
C1780       C  0.66900454  0.20914452  0.48460746    -0.05700
C1781       C  0.68375343  0.15297672  0.48047852    -0.06500
C1782       C  0.62612352  0.16772757  0.48440410    -0.06400
C1783       C  0.69366187  0.23071739  0.47592975    -0.31800
N1784       N  0.70853484  0.24249963  0.50140318     0.14700
C1785       C  0.69440551  0.22839211  0.02642369    -0.31800
H1786       H  0.70438036  0.22978195  0.04940168     0.16700
C1787       C  0.70560263  0.13000236  0.46828957    -0.30700
N1788       N  0.72024402  0.11480691  0.99203938     0.13500
C1789       C  0.70751641  0.12765508  0.01919449    -0.30700
C1790       C  0.60426429  0.14354805  0.47574222    -0.31000
N1791       N  0.59123521  0.12932320  0.50120933     0.14000
H1792       H  0.60165647  0.13401776  0.45245706     0.16600
C1793       C  0.60559664  0.14261305  0.02605352    -0.31000
H1794       H  0.60428243  0.13231058  0.04890546     0.16600
H1795       H  0.71374091  0.11965467  0.04200171     0.16600
H1796       H  0.70284684  0.23452484  0.45247493     0.16700
H1797       H  0.71060764  0.12481555  0.44397059     0.16600
C1798       C  0.67733981  0.18107948  0.28074728     0.30500
C1799       C  0.67925656  0.17882062  0.21753790     0.30500
C1800       C  0.68597064  0.21285555  0.26482162    -0.05700
C1801       C  0.70211471  0.15705288  0.26544608    -0.06500
C1802       C  0.64432226  0.17077404  0.26596620    -0.06400
C1803       C  0.68725104  0.21170634  0.23239044    -0.05700
C1804       C  0.70322938  0.15584711  0.23335195    -0.06500
C1805       C  0.64525852  0.16964591  0.23313156    -0.06400
C1806       C  0.70981813  0.23505183  0.22313147    -0.31800
N1807       N  0.72128715  0.25072901  0.24842019     0.14700
C1808       C  0.70712452  0.23716255  0.27381721    -0.31800
H1809       H  0.71506831  0.24170775  0.29719927     0.16700
C1810       C  0.72774201  0.13396741  0.22443313    -0.30700
N1811       N  0.74185105  0.12270430  0.25027725     0.13500
C1812       C  0.72573538  0.13594730  0.27540049    -0.30700
C1813       C  0.62396642  0.14491387  0.22473172    -0.31000
N1814       N  0.60985848  0.13168180  0.25031270     0.14000
H1815       H  0.62237111  0.13443761  0.20171692     0.16600
C1816       C  0.62277467  0.14650005  0.27529785    -0.31000
H1817       H  0.62024241  0.13730810  0.29852647     0.16600
H1818       H  0.73118833  0.13071684  0.29915964     0.16600
H1819       H  0.72032324  0.23753939  0.19992784     0.16700
H1820       H  0.73560700  0.12740521  0.20100793     0.16600
C1821       C  0.91868114  0.41845016  0.03494000     0.30500
C1822       C  0.92217170  0.41864467  0.47179529     0.30500
C1823       C  0.90983568  0.38649104  0.01881137    -0.05700
C1824       C  0.89565028  0.44286879  0.01952848    -0.06500
C1825       C  0.95299028  0.42740379  0.02070688    -0.06400
C1826       C  0.91133084  0.38658691  0.48623412    -0.05700
C1827       C  0.89725825  0.44318429  0.48720749    -0.06500
C1828       C  0.95469779  0.42723593  0.48814132    -0.06400
C1829       C  0.88655114  0.36574445  0.47671469    -0.31800
N1830       N  0.87113934  0.35252368  0.50175555     0.14700
C1831       C  0.88495490  0.36517496  0.02733060    -0.31800
H1832       H  0.87477553  0.36222736  0.05058926     0.16700
C1833       C  0.87695536  0.46835095  0.47849282    -0.30700
N1834       N  0.86289379  0.48260246  0.00437604     0.13500
C1835       C  0.87459063  0.46744504  0.02947375    -0.30700
C1836       C  0.97691248  0.45105756  0.47968233    -0.31000
N1837       N  0.98874314  0.46566455  0.50518734     0.14000
H1838       H  0.98018731  0.46033307  0.45653143     0.16600
C1839       C  0.97392053  0.45203114  0.03018235    -0.31000
H1840       H  0.97438802  0.46235963  0.05336191     0.16600
H1841       H  0.86850160  0.47411136  0.05329994     0.16600
H1842       H  0.87767810  0.36359774  0.45335823     0.16700
H1843       H  0.87375118  0.47691793  0.45531675     0.16600
C1844       C  0.92744006  0.42631735  0.28355102     0.30500
C1845       C  0.93609382  0.41863745  0.22092321     0.30500
C1846       C  0.92166202  0.39215611  0.27058248    -0.05700
C1847       C  0.90518452  0.44747964  0.26370960    -0.06500
C1848       C  0.96261615  0.43472541  0.27052055    -0.06400
C1849       C  0.92623068  0.38823789  0.23841114    -0.05700
C1850       C  0.90960022  0.44328721  0.23190002    -0.06500
C1851       C  0.96706675  0.43098485  0.23795376    -0.06400
C1852       C  0.90536650  0.36374103  0.22939266    -0.31800
N1853       N  0.88844620  0.35265617  0.25450167     0.14700
C1854       C  0.89789041  0.36995919  0.27956558    -0.31800
H1855       H  0.88483241  0.36986459  0.30188416     0.16700
C1856       C  0.89278071  0.46770204  0.21799217    -0.30700
N1857       N  0.87789092  0.48643564  0.24035926     0.13500
C1858       C  0.88624486  0.47505153  0.26833048    -0.30700
C1859       C  0.98899811  0.45500179  0.22885887    -0.31000
N1860       N  0.99888473  0.47199462  0.25395691     0.14000
H1861       H  0.99406921  0.46212095  0.20521413     0.16600
C1862       C  0.98251682  0.46030766  0.27917511    -0.31000
H1863       H  0.98158638  0.47223362  0.30167025     0.16600
H1864       H  0.87961276  0.48656292  0.29032996     0.16600
H1865       H  0.89931860  0.35778351  0.20573592     0.16700
H1866       H  0.89256989  0.47250439  0.19348689     0.16600
C1867       C  0.66035828  0.42229640  0.46841158     0.30500
C1868       C  0.65907379  0.42272849  0.03160058     0.30500
C1869       C  0.65543434  0.45560315  0.48454649    -0.05700
C1870       C  0.63308415  0.40149204  0.48374762    -0.06500
C1871       C  0.69235241  0.40926051  0.48335844    -0.06400
C1872       C  0.65449023  0.45551280  0.01701010    -0.05700
C1873       C  0.63255682  0.40162444  0.01617746    -0.06500
C1874       C  0.69162444  0.41023272  0.01598397    -0.06400
C1875       C  0.63379029  0.48043232  0.02693017    -0.31800
N1876       N  0.62272524  0.49604572  0.50205889     0.14700
C1877       C  0.63608044  0.48153556  0.47630222    -0.31800
H1878       H  0.62835890  0.48680855  0.45317841     0.16700
C1879       C  0.61960786  0.37238948  0.02504051    -0.30700
N1880       N  0.61110312  0.35492477  0.99970762     0.13500
C1881       C  0.62015427  0.37217156  0.47442307    -0.30700
C1882       C  0.71388910  0.38746844  0.02573582    -0.31000
N1883       N  0.72842418  0.37279441  0.50066795     0.14000
H1884       H  0.71671030  0.37976992  0.04932127     0.16600
C1885       C  0.71412205  0.38421086  0.47512424    -0.31000
H1886       H  0.71662079  0.37211472  0.45283987     0.16600
H1887       H  0.62034297  0.36300430  0.45082261     0.16600
H1888       H  0.62330150  0.48350331  0.05019714     0.16700
H1889       H  0.61855928  0.36381075  0.04849368     0.16600
C1890       C  0.68047941  0.42171888  0.27998844     0.30500
C1891       C  0.68342780  0.42606493  0.21668310     0.30500
C1892       C  0.71652975  0.42097713  0.26447745    -0.05700
C1893       C  0.66192736  0.39537699  0.26168519    -0.06500
C1894       C  0.66616395  0.45319209  0.26657185    -0.06400
C1895       C  0.71719605  0.42090324  0.23165624    -0.05700
C1896       C  0.66359993  0.39775882  0.22962473    -0.06500
C1897       C  0.66802772  0.45500682  0.23436747    -0.06400
C1898       C  0.74117208  0.39825073  0.22215305    -0.31800
N1899       N  0.75687652  0.38709935  0.24694896     0.14700
C1900       C  0.74404694  0.40273740  0.27214488    -0.31800
H1901       H  0.75325943  0.39900126  0.29498879     0.16700
C1902       C  0.64406487  0.37394428  0.21750528    -0.30700
N1903       N  0.62955292  0.35761604  0.24114728     0.13500
C1904       C  0.64051304  0.37022044  0.26832443    -0.30700
C1905       C  0.64815574  0.48022924  0.22582322    -0.31000
N1906       N  0.63436672  0.49436419  0.25167564     0.14000
H1907       H  0.64164597  0.48586756  0.20238507     0.16600
C1908       C  0.64566522  0.47861667  0.27670237    -0.31000
H1909       H  0.63745139  0.48418348  0.30019359     0.16600
H1910       H  0.63192773  0.36300923  0.29114399     0.16600
H1911       H  0.74272549  0.38670472  0.19946163     0.16700
H1912       H  0.63961694  0.36937681  0.19325477     0.16600
O1913       O  0.49818737  0.07191848  0.03047311    -0.74000
O1914       O  0.58046376  0.02530125  0.02849103    -0.74000
O1915       O  0.56352076  0.08826261  0.02802834    -0.74000
O1916       O  0.51530780  0.00880776  0.03049883    -0.74100
O1917       O  0.51589716  0.00746895  0.47886377    -0.74000
O1918       O  0.56334775  0.08704594  0.47640626    -0.74000
O1919       O  0.58083514  0.02414862  0.47684686    -0.74000
O1920       O  0.49802806  0.07028665  0.47885249    -0.74000
Ni1921     Ni  0.53937743  0.04868285  0.03121320     1.25400
Ni1922     Ni  0.53950916  0.04722125  0.47590181     1.25400
C1923       C  0.48447207  0.07874954  0.50503172     0.88200
C1924       C  0.59398461  0.01666875  0.50241983     0.88200
C1925       C  0.57173185  0.10052253  0.50185635     0.88200
C1926       C  0.50761562  0.99505826  0.50490655     0.88400
O1927       O  0.59357753  0.02669566  0.27774101    -0.74000
O1928       O  0.51398143  0.07851204  0.27840953    -0.74000
O1929       O  0.52717953  0.01435870  0.27884855    -0.74000
O1930       O  0.58048853  0.09113060  0.27701571    -0.74100
O1931       O  0.58097133  0.08976389  0.22542196    -0.74000
O1932       O  0.52823783  0.01263764  0.22724221    -0.74000
O1933       O  0.51445372  0.07688590  0.22680899    -0.74000
O1934       O  0.59455068  0.02545628  0.22613270    -0.74000
Ni1935     Ni  0.55380888  0.05277914  0.27979862     1.25400
Ni1936     Ni  0.55459367  0.05116623  0.22455928     1.25400
C1937       C  0.60686980  0.01699349  0.25185574     0.88200
C1938       C  0.50105685  0.08627474  0.25280930     0.88200
C1939       C  0.51893960  0.00078719  0.25331603     0.88200
C1940       C  0.58959182  0.10311365  0.25093065     0.88400
O1941       O  0.76033827  0.33538770  0.02714307    -0.74000
O1942       O  0.81644690  0.26083394  0.02831519    -0.74000
O1943       O  0.82748002  0.32509001  0.02752444    -0.74000
O1944       O  0.74981506  0.27133678  0.02746613    -0.74100
O1945       O  0.75195742  0.27007574  0.47582495    -0.74000
O1946       O  0.82978242  0.32341777  0.47590363    -0.74000
O1947       O  0.81847689  0.25908146  0.47666257    -0.74000
O1948       O  0.76267791  0.33396423  0.47549302    -0.74000
Ni1949     Ni  0.78851354  0.29827461  0.02946449     1.25400
Ni1950     Ni  0.79088968  0.29663764  0.47414976     1.25400
C1951       C  0.75148053  0.34639627  0.50113395     0.88200
C1952       C  0.82634225  0.24742419  0.50271526     0.88200
C1953       C  0.84164583  0.33290318  0.50169929     0.88200
C1954       C  0.73792385  0.26208652  0.50157250     0.88400
O1955       O  0.82524850  0.26322921  0.27856850    -0.74000
O1956       O  0.77949442  0.34433686  0.27455486    -0.74000
O1957       O  0.76075912  0.28109857  0.27510338    -0.74000
O1958       O  0.84353741  0.32611222  0.27858495    -0.74100
O1959       O  0.84806609  0.32428226  0.22700856    -0.74000
O1960       O  0.76507934  0.27889836  0.22354572    -0.74000
O1961       O  0.78370043  0.34227686  0.22298914    -0.74000
O1962       O  0.82958145  0.26155505  0.22698413    -0.74000
Ni1963     Ni  0.80200929  0.30377894  0.27853813     1.25400
Ni1964     Ni  0.80673633  0.30170390  0.22330654     1.25400
C1965       C  0.83497270  0.24904652  0.25324342     0.88200
C1966       C  0.77452486  0.35695627  0.24816402     0.88200
C1967       C  0.74984639  0.27149887  0.24895537     0.88200
C1968       C  0.85912312  0.33317394  0.25334370     0.88400
C1969       C  0.67812123  0.41705193  0.31549500    -0.04800
C1970       C  0.70029423  0.39600167  0.32979261    -0.04700
C1971       C  0.70485971  0.39756932  0.36158553    -0.22900
C1972       C  0.68185782  0.41440736  0.38063298     0.19400
C1973       C  0.65326980  0.42756088  0.36744594     0.16600
C1974       C  0.65192354  0.42985445  0.33482153    -0.17900
C1975       C  0.62641481  0.43697888  0.38715160    -0.19700
C1976       C  0.62841949  0.43339713  0.41931942    -0.12300
C1977       C  0.65844909  0.42372841  0.43288139     0.04400
C1978       C  0.68553197  0.41543850  0.41280022    -0.24400
H1979       H  0.71328702  0.37716582  0.31683040     0.09500
H1980       H  0.72451602  0.38345891  0.37144912     0.13100
H1981       H  0.62997415  0.43983021  0.32484820     0.13000
H1982       H  0.60351451  0.44588694  0.37771732     0.12800
H1983       H  0.60653217  0.43887922  0.43375432     0.13300
H1984       H  0.70958684  0.40974140  0.42144820     0.15300
C1985       C  0.65784043  0.42430457  0.06700827    -0.04800
C1986       C  0.62749489  0.42016176  0.08378041    -0.04700
C1987       C  0.62626238  0.42125236  0.11611067    -0.22900
C1988       C  0.65527713  0.42697591  0.13249179     0.19400
C1989       C  0.68555543  0.43286906  0.11608722     0.16600
C1990       C  0.68646952  0.43231519  0.08354870    -0.17900
C1991       C  0.71446150  0.43893543  0.13255091    -0.19700
C1992       C  0.71377699  0.43734538  0.16484975    -0.12300
C1993       C  0.68412251  0.42968089  0.18147840     0.04400
C1994       C  0.65454947  0.42656054  0.16497732    -0.24400
H1995       H  0.60443335  0.41627493  0.07192951     0.03900
H1996       H  0.60266467  0.41728379  0.12829768     0.13100
H1997       H  0.70964497  0.43752395  0.07112503     0.13000
H1998       H  0.73778382  0.44432441  0.12042997     0.12800
H1999       H  0.73660071  0.44229512  0.17667697     0.13300
H2000       H  0.63102329  0.42296205  0.17741149     0.15300
C2001       C  0.92163804  0.42864958  0.31884262    -0.04800
C2002       C  0.88994807  0.43688495  0.33189939    -0.04700
C2003       C  0.88382518  0.43720418  0.36392128    -0.22900
C2004       C  0.90858248  0.42739392  0.38387298     0.19400
C2005       C  0.93983934  0.41709944  0.37123561     0.16600
C2006       C  0.94624343  0.41792086  0.33894866    -0.17900
C2007       C  0.96375588  0.40518660  0.39106762    -0.19700
C2008       C  0.95714787  0.40449075  0.42303582    -0.12300
C2009       C  0.92699226  0.41690236  0.43632646     0.04400
C2010       C  0.90220480  0.42687300  0.41614104    -0.24400
H2011       H  0.86911322  0.44183121  0.31747619     0.09500
H2012       H  0.85931158  0.44420131  0.37300588     0.13100
H2013       H  0.97010812  0.40955678  0.32939919     0.13000
H2014       H  0.98758499  0.39631080  0.38187593     0.12800
H2015       H  0.97621388  0.39490812  0.43756526     0.13300
H2016       H  0.87766636  0.43336903  0.42521002     0.15300
C2017       C  0.93867593  0.41348035  0.18573767    -0.04800
C2018       C  0.96946901  0.40771702  0.17014821    -0.04700
C2019       C  0.97154376  0.40563275  0.13774215    -0.22900
C2020       C  0.94288538  0.40959513  0.12028295     0.19400
C2021       C  0.91154301  0.41307041  0.13568517     0.16600
C2022       C  0.90953037  0.41361982  0.16815778    -0.17900
C2023       C  0.88280480  0.41661709  0.11837302    -0.19700
C2024       C  0.88528214  0.41815416  0.08610434    -0.12300
C2025       C  0.91653111  0.41661132  0.07034149     0.04400
C2026       C  0.94510646  0.41064580  0.08776872    -0.24400
H2027       H  0.99206935  0.40514089  0.18294913     0.09500
H2028       H  0.99572058  0.40194809  0.12632753     0.13100
H2029       H  0.88523262  0.41550344  0.17974720     0.13000
H2030       H  0.85843107  0.41872894  0.12980556     0.12800
H2031       H  0.86258459  0.42053619  0.07341812     0.13300
H2032       H  0.96919771  0.40704719  0.07620170     0.15300
C2033       C  0.85504153  0.01254816  0.23520680    -0.04800
C2034       C  0.83412510  0.51080509  0.20970515    -0.04700
C2035       C  0.80871192  0.03360032  0.20666750    -0.22900
C2036       C  0.80372107  0.05788136  0.22920610     0.19400
C2037       C  0.82560576  0.06051434  0.25417684     0.16600
C2038       C  0.85135712  0.03801698  0.25683467    -0.17900
C2039       C  0.82057499  0.08485264  0.27668482    -0.19700
C2040       C  0.79322157  0.10551551  0.27517424    -0.12300
C2041       C  0.77063804  0.10221752  0.25105778     0.04400
C2042       C  0.77650173  0.07883489  0.22774600    -0.24400
H2043       H  0.83632374  0.49121298  0.19287994     0.09500
H2044       H  0.79227437  0.53118867  0.18734392     0.13100
H2045       H  0.86781798  0.03971349  0.27620019     0.13000
H2046       H  0.83737543  0.08750896  0.29574202     0.12800
H2047       H  0.78972282  0.12411232  0.29285543     0.13300
H2048       H  0.75919750  0.07617427  0.20910229     0.15300
C2049       C  0.84001669  0.01003718  0.00519440    -0.04800
C2050       C  0.83985080  0.53180798  0.03024009    -0.04700
C2051       C  0.81695638  0.05768307  0.03204140    -0.22900
C2052       C  0.79322561  0.06122647  0.00919121     0.19400
C2053       C  0.79309217  0.03926734  0.98381602     0.16600
C2054       C  0.81656254  0.01388885  0.48189022    -0.17900
C2055       C  0.76917672  0.04286940  0.46105853    -0.19700
C2056       C  0.74544993  0.06774046  0.46361826    -0.12300
C2057       C  0.74510931  0.08950603  0.98900403     0.04400
C2058       C  0.76941235  0.08616870  0.01154952    -0.24400
H2059       H  0.85783591  0.52971719  0.04826950     0.09500
H2060       H  0.81750066  0.57398597  0.05158579     0.13100
H2061       H  0.81603274  0.99668516  0.46275821     0.13000
H2062       H  0.76862106  0.02627502  0.44143471     0.12800
H2063       H  0.72694912  0.06956402  0.44600873     0.13300
H2064       H  0.76987907  0.10307952  0.03090385     0.15300
C2065       C  0.65698001  0.18093886  0.43276288    -0.04800
C2066       C  0.62597311  0.18564645  0.41880938    -0.04700
C2067       C  0.62362731  0.18669229  0.38672014    -0.22900
C2068       C  0.65238255  0.18474528  0.36769075     0.19400
C2069       C  0.68392401  0.18311146  0.38130180     0.16600
C2070       C  0.68606711  0.18124875  0.41366497    -0.17900
C2071       C  0.71275471  0.18374334  0.36228151    -0.19700
C2072       C  0.71023962  0.18462955  0.33015416    -0.12300
C2073       C  0.67894928  0.18316742  0.31608393     0.04400
C2074       C  0.65004907  0.18482328  0.33531366    -0.24400
H2075       H  0.60316732  0.18861719  0.43257788     0.09500
H2076       H  0.59927182  0.18919596  0.37681313     0.13100
H2077       H  0.71031435  0.17990217  0.42394984     0.13000
H2078       H  0.73723974  0.18360716  0.37220968     0.12800
H2079       H  0.73304490  0.18583217  0.31616779     0.13300
H2080       H  0.62573347  0.18667917  0.32530554     0.15300
C2081       C  0.65953638  0.17574111  0.06633823    -0.04800
C2082       C  0.62926207  0.18372663  0.08237041    -0.04700
C2083       C  0.62697911  0.18489795  0.11455876    -0.22900
C2084       C  0.65539577  0.18042451  0.13182801     0.19400
C2085       C  0.68660832  0.17537458  0.11637087     0.16600
C2086       C  0.68851085  0.17271767  0.08374312    -0.17900
C2087       C  0.71538777  0.17415149  0.13387568    -0.19700
C2088       C  0.71298986  0.17688434  0.16622000    -0.12300
C2089       C  0.68167313  0.17856044  0.18204289     0.04400
C2090       C  0.65307320  0.18177845  0.16432002    -0.24400
H2091       H  0.60690678  0.18928530  0.07009490     0.09500
H2092       H  0.60302245  0.19001128  0.12592501     0.13100
H2093       H  0.71251023  0.16919855  0.07198122     0.13000
H2094       H  0.73977680  0.17160308  0.12257440     0.12800
H2095       H  0.73582713  0.17743360  0.17887940     0.13300
H2096       H  0.62895658  0.18596263  0.17567882     0.15300
C2097       C  0.60319168  0.33459861  0.23750266    -0.04800
C2098       C  0.57854470  0.33993031  0.21565167    -0.04700
C2099       C  0.55227442  0.31836502  0.21222637    -0.22900
C2100       C  0.55022099  0.29086642  0.23047556     0.19400
C2101       C  0.57531278  0.28482914  0.25204879     0.16600
C2102       C  0.60156057  0.30683719  0.25554053    -0.17900
C2103       C  0.57331823  0.25718052  0.27012987    -0.19700
C2104       C  0.54598985  0.23660045  0.26795390    -0.12300
C2105       C  0.52037001  0.24300029  0.24738551     0.04400
C2106       C  0.52306153  0.26977537  0.22811703    -0.24400
H2107       H  0.57922806  0.36131113  0.20165894     0.09500
H2108       H  0.53334331  0.32342120  0.19558962     0.13100
H2109       H  0.62069919  0.30246067  0.27217111     0.13000
H2110       H  0.59249236  0.25185548  0.28646932     0.12800
H2111       H  0.54451498  0.21582972  0.28271400     0.13300
H2112       H  0.00324191  0.27494034  0.21239389     0.15300
C2113       C  0.59571994  0.32346627  0.99997988    -0.04800
C2114       C  0.59649044  0.30426678  0.52655899    -0.04700
C2115       C  0.57716525  0.27647831  0.52889905    -0.22900
C2116       C  0.55663322  0.26722278  0.50473043     0.19400
C2117       C  0.55754290  0.28482449  0.97702054     0.16600
C2118       C  0.57719058  0.31263443  0.97472491    -0.17900
C2119       C  0.53730647  0.27538871  0.95270883    -0.19700
C2120       C  0.51451899  0.25041982  0.95664259    -0.12300
C2121       C  0.51171926  0.23401419  0.98488411     0.04400
C2122       C  0.53403514  0.24172673  0.50837729    -0.24400
H2123       H  0.61141598  0.31097951  0.54601693     0.09500
H2124       H  0.57737908  0.26289931  0.55008671     0.13100
H2125       H  0.57627946  0.32687125  0.95400817     0.13000
H2126       H  0.53792140  0.28834409  0.93113229     0.12800
H2127       H  0.49784702  0.24533876  0.93802180     0.13300
H2128       H  0.03293974  0.22885350  0.52996132     0.15300
C2129       C  0.92134914  0.17723992  0.31972540    -0.04800
C2130       C  0.92499089  0.20741032  0.33466964    -0.04700
C2131       C  0.92177876  0.21062245  0.36685426    -0.22900
C2132       C  0.91417323  0.18384117  0.38494515     0.19400
C2133       C  0.90903602  0.15365880  0.37039194     0.16600
C2134       C  0.91202203  0.15066653  0.33792549    -0.17900
C2135       C  0.90087643  0.12704969  0.38862309    -0.19700
C2136       C  0.89988373  0.12989617  0.42098558    -0.12300
C2137       C  0.90702246  0.15943730  0.43586899     0.04400
C2138       C  0.91189205  0.18674327  0.41736380    -0.24400
H2139       H  0.92963957  0.22886814  0.32141564     0.09500
H2140       H  0.92519604  0.23411274  0.37759132     0.13100
H2141       H  0.90695632  0.12764487  0.32688001     0.13000
H2142       H  0.89590362  0.10385089  0.37787936     0.12800
H2143       H  0.89364702  0.10881398  0.43425752     0.13300
H2144       H  0.91532208  0.21014304  0.42827935     0.15300
C2145       C  0.91754124  0.16672248  0.18633995    -0.04800
C2146       C  0.90444113  0.13774907  0.17440770    -0.04700
C2147       C  0.90053048  0.13298996  0.14266931    -0.22900
C2148       C  0.90861627  0.15747286  0.12196860     0.19400
C2149       C  0.91890068  0.18771475  0.13362666     0.16600
C2150       C  0.92305639  0.19228448  0.16573584    -0.17900
C2151       C  0.92476064  0.21279236  0.11288307    -0.19700
C2152       C  0.92237001  0.20735416  0.08093811    -0.12300
C2153       C  0.91527451  0.17647517  0.06880015     0.04400
C2154       C  0.90667586  0.15208818  0.08982556    -0.24400
H2155       H  0.89755550  0.11834766  0.18970624     0.09500
H2156       H  0.89146430  0.10999047  0.13430621     0.13100
H2157       H  0.93023666  0.21571192  0.17455855     0.13000
H2158       H  0.93145063  0.23655240  0.12131524     0.12800
H2159       H  0.92642812  0.22739030  0.06563080     0.13300
H2160       H  0.89855678  0.12883143  0.08129641     0.15300
C2161       C  0.91430566  0.17062652  0.53366655     0.30500
C2162       C  0.90991517  0.16243303  0.97112114     0.30500
C2163       C  0.88176856  0.18210626  0.51983162    -0.05700
C2164       C  0.94147257  0.18739123  0.51378293    -0.06500
C2165       C  0.91771962  0.13537496  0.52172648    -0.06400
C2166       C  0.87957895  0.17820395  0.98773644    -0.05700
C2167       C  0.93917301  0.18294371  0.98203747    -0.06500
C2168       C  0.91549872  0.13114491  0.98910723    -0.06400
C2169       C  0.85796481  0.20176074  0.97821070    -0.31800
N2170       N  0.84647872  0.21892199  0.00329076     0.14700
C2171       C  0.86105599  0.20740736  0.52864936    -0.31800
H2172       H  0.85968178  0.21897291  0.55130655     0.16700
C2173       C  0.96617677  0.19768294  0.96820466    -0.30700
N2174       N  0.98447515  0.21201133  0.49045445     0.13500
C2175       C  0.96982793  0.20533053  0.51847124    -0.30700
C2176       C  0.93853099  0.10739108  0.98066818    -0.31000
N2177       N  0.95402194  0.09694913  0.00584713     0.14000
H2178       H  0.94774352  0.10247230  0.95722366     0.16600
C2179       C  0.94169428  0.11365131  0.53075311    -0.31000
H2180       H  0.95364607  0.11438355  0.55287166     0.16600
H2181       H  0.97871123  0.21348913  0.54063467     0.16600
H2182       H  0.85362099  0.20807561  0.95447738     0.16700
H2183       H  0.97215818  0.19778736  0.94365444     0.16600
C2184       C  0.92128939  0.17068081  0.72139645     0.30500
C2185       C  0.92264355  0.17460866  0.78434170     0.30500
C2186       C  0.93175587  0.13954333  0.73759881    -0.05700
C2187       C  0.94614601  0.19544038  0.73450515    -0.06500
C2188       C  0.88821622  0.18019108  0.73791284    -0.06400
C2189       C  0.93227162  0.14145432  0.77011751    -0.05700
C2190       C  0.94685057  0.19701184  0.76680453    -0.06500
C2191       C  0.88889954  0.18239686  0.77037820    -0.06400
C2192       C  0.95742528  0.12077741  0.77876977    -0.31800
N2193       N  0.97148842  0.10607907  0.75333366     0.14700
C2194       C  0.95660615  0.11788483  0.72825062    -0.31800
H2195       H  0.96596841  0.11423772  0.70466398     0.16700
C2196       C  0.97473189  0.21407948  0.77454336    -0.30700
N2197       N  0.99041374  0.22406406  0.74822203     0.13500
C2198       C  0.97349394  0.21257843  0.72355683    -0.30700
C2199       C  0.86681310  0.20677851  0.77938342    -0.31000
N2200       N  0.85293387  0.21916354  0.75409267     0.14000
H2201       H  0.86503563  0.21800844  0.80218977     0.16600
C2202       C  0.86586244  0.20330889  0.72888170    -0.31000
H2203       H  0.86327056  0.21131738  0.70536152     0.16600
H2204       H  0.98185696  0.21474435  0.69964519     0.16600
H2205       H  0.96761852  0.11979959  0.80164195     0.16700
H2206       H  0.98379138  0.21798476  0.79763506     0.16600
C2207       C  0.66081993  0.17493042  0.53081555     0.30500
C2208       C  0.65901839  0.17772275  0.96792530     0.30500
C2209       C  0.66970014  0.20762675  0.51708928    -0.05700
C2210       C  0.68483672  0.15151838  0.51271728    -0.06500
C2211       C  0.62715402  0.16663481  0.51675239    -0.06400
C2212       C  0.66900406  0.20914333  0.98460715    -0.05700
C2213       C  0.68375500  0.15297589  0.98048022    -0.06500
C2214       C  0.62612421  0.16772465  0.98440537    -0.06400
C2215       C  0.69366188  0.23071578  0.97592891    -0.31800
N2216       N  0.70853439  0.24249926  0.00140213     0.14700
C2217       C  0.69440659  0.22839139  0.52642446    -0.31800
H2218       H  0.70438185  0.22978034  0.54940229     0.16700
C2219       C  0.70560607  0.13000265  0.96829222    -0.30700
N2220       N  0.72023937  0.11480489  0.49203627     0.13500
C2221       C  0.70751284  0.12765285  0.51919185    -0.30700
C2222       C  0.60426563  0.14354429  0.97574422    -0.31000
N2223       N  0.59123742  0.12931942  0.00121171     0.14000
H2224       H  0.60165773  0.13401362  0.95245915     0.16600
C2225       C  0.60559459  0.14261570  0.52605152    -0.31000
H2226       H  0.60427973  0.13231252  0.54890313     0.16600
H2227       H  0.71373698  0.11965122  0.54199876     0.16600
H2228       H  0.70284755  0.23452193  0.95247412     0.16700
H2229       H  0.71061147  0.12481550  0.94397337     0.16600
C2230       C  0.67733786  0.18107642  0.78074835     0.30500
C2231       C  0.67925626  0.17881467  0.71753884     0.30500
C2232       C  0.68596920  0.21285167  0.76482149    -0.05700
C2233       C  0.70211281  0.15704904  0.76544856    -0.06500
C2234       C  0.64432076  0.17077006  0.76596717    -0.06400
C2235       C  0.68725022  0.21170106  0.73239032    -0.05700
C2236       C  0.70322874  0.15584205  0.73335438    -0.06500
C2237       C  0.64525793  0.16964026  0.73313246    -0.06400
C2238       C  0.70981748  0.23504618  0.72313080    -0.31800
N2239       N  0.72128627  0.25072423  0.74841912     0.14700
C2240       C  0.70712315  0.23715888  0.77381648    -0.31800
H2241       H  0.71506680  0.24170476  0.79719848     0.16700
C2242       C  0.72773987  0.13396014  0.72443726    -0.30700
N2243       N  0.74184604  0.12269631  0.75028255     0.13500
C2244       C  0.72573047  0.13594145  0.77540470    -0.30700
C2245       C  0.62396684  0.14490711  0.72473348    -0.31000
N2246       N  0.60985862  0.13167594  0.75031480     0.14000
H2247       H  0.62237223  0.13442975  0.70171904     0.16600
C2248       C  0.62277348  0.14649603  0.77529962    -0.31000
H2249       H  0.62024035  0.13730569  0.79852881     0.16600
H2250       H  0.73118090  0.13071046  0.79916432     0.16600
H2251       H  0.72032309  0.23753270  0.69992723     0.16700
H2252       H  0.73560526  0.12739636  0.70101252     0.16600
C2253       C  0.91867469  0.41845507  0.53493837     0.30500
C2254       C  0.92217841  0.41863821  0.97179723     0.30500
C2255       C  0.90983177  0.38649563  0.51880886    -0.05700
C2256       C  0.89564170  0.44287218  0.51952731    -0.06500
C2257       C  0.95298312  0.42741133  0.52070510    -0.06400
C2258       C  0.91133515  0.38658144  0.98623668    -0.05700
C2259       C  0.89726689  0.44318003  0.98720877    -0.06500
C2260       C  0.95470507  0.42722782  0.98814310    -0.06400
C2261       C  0.88655443  0.36574004  0.97671761    -0.31800
N2262       N  0.87114135  0.35252081  0.00175862     0.14700
C2263       C  0.88495265  0.36517774  0.52732768    -0.31800
H2264       H  0.87477376  0.36222899  0.55058627     0.16700
C2265       C  0.87696681  0.46834853  0.97849339    -0.30700
N2266       N  0.86288033  0.48260225  0.50437563     0.13500
C2267       C  0.87457888  0.46744575  0.52947310    -0.30700
C2268       C  0.97691971  0.45104954  0.97968397    -0.31000
N2269       N  0.98875026  0.46565686  0.00518878     0.14000
H2270       H  0.98019413  0.46032526  0.95653316     0.16600
C2271       C  0.97391316  0.45203873  0.53018085    -0.31000
H2272       H  0.97438100  0.46236674  0.55336057     0.16600
H2273       H  0.86848895  0.47411119  0.55329935     0.16600
H2274       H  0.87768192  0.36359278  0.95336096     0.16700
H2275       H  0.87376308  0.47691399  0.95531672     0.16600
C2276       C  0.92743902  0.42630753  0.78355246     0.30500
C2277       C  0.93608838  0.41863374  0.72092331     0.30500
C2278       C  0.92166281  0.39214690  0.77058151    -0.05700
C2279       C  0.90518031  0.44746974  0.76371425    -0.06500
C2280       C  0.96261351  0.43471916  0.77052027    -0.06400
C2281       C  0.92622931  0.38823178  0.73840941    -0.05700
C2282       C  0.90959339  0.44328058  0.73190417    -0.06500
C2283       C  0.96706176  0.43098158  0.73795308    -0.06400
C2284       C  0.90536547  0.36373504  0.72939025    -0.31800
N2285       N  0.88844711  0.35264777  0.75449922     0.14700
C2286       C  0.89789284  0.36994832  0.77956403    -0.31800
H2287       H  0.88483621  0.36985143  0.80188329     0.16700
C2288       C  0.89276574  0.46769270  0.71800021    -0.30700
N2289       N  0.87787421  0.48642144  0.74037031     0.13500
C2290       C  0.88623392  0.47503659  0.76833958    -0.30700
C2291       C  0.98899276  0.45499903  0.72885877    -0.31000
N2292       N  0.99888135  0.47198962  0.75395749     0.14000
H2293       H  0.99406265  0.46211990  0.70521434     0.16600
C2294       C  0.98251472  0.46030082  0.77917565    -0.31000
H2295       H  0.98158613  0.47222473  0.80167176     0.16600
H2296       H  0.87960113  0.48654417  0.79034061     0.16600
H2297       H  0.89931563  0.35777987  0.70573347     0.16700
H2298       H  0.89255065  0.47249692  0.69349541     0.16600
C2299       C  0.66036314  0.42229719  0.96841044     0.30500
C2300       C  0.65907052  0.42272849  0.53160181     0.30500
C2301       C  0.65543698  0.45560360  0.98454545    -0.05700
C2302       C  0.63308958  0.40149149  0.98374551    -0.06500
C2303       C  0.69235758  0.40926271  0.98335798    -0.06400
C2304       C  0.65448798  0.45551278  0.51701109    -0.05700
C2305       C  0.63255210  0.40162565  0.51617972    -0.06500
C2306       C  0.69162020  0.41023086  0.51598436    -0.06400
C2307       C  0.63378961  0.48043368  0.52693103    -0.31800
N2308       N  0.62272467  0.49604364  0.00205816     0.14700
C2309       C  0.63608083  0.48153460  0.97630134    -0.31800
H2310       H  0.62835879  0.48680723  0.95317759     0.16700
C2311       C  0.61960422  0.37239070  0.52504373    -0.30700
N2312       N  0.61110005  0.35492481  0.49971150     0.13500
C2313       C  0.62015838  0.37217190  0.97441979    -0.30700
C2314       C  0.71388568  0.38746706  0.52573570    -0.31000
N2315       N  0.72842791  0.37279561  0.00066841     0.14000
H2316       H  0.71670818  0.37976902  0.54932116     0.16600
C2317       C  0.71412712  0.38421281  0.97512432    -0.31000
H2318       H  0.71662616  0.37211683  0.95283994     0.16600
H2319       H  0.62034619  0.36300542  0.95081897     0.16600
H2320       H  0.62330088  0.48350539  0.55019800     0.16700
H2321       H  0.61855692  0.36381281  0.54849719     0.16600
C2322       C  0.68048505  0.42171668  0.77998809     0.30500
C2323       C  0.68343100  0.42606439  0.71668302     0.30500
C2324       C  0.71653487  0.42097503  0.76447602    -0.05700
C2325       C  0.66193234  0.39537543  0.76168490    -0.06500
C2326       C  0.66616908  0.45319037  0.76657281    -0.06400
C2327       C  0.71719985  0.42090139  0.73165482    -0.05700
C2328       C  0.66360319  0.39775824  0.72962451    -0.06500
C2329       C  0.66803210  0.45500607  0.73436854    -0.06400
C2330       C  0.74117418  0.39824731  0.72215079    -0.31800
N2331       N  0.75687900  0.38709506  0.74694607     0.14700
C2332       C  0.74405160  0.40273409  0.77214238    -0.31800
H2333       H  0.75326554  0.39899844  0.79498551     0.16700
C2334       C  0.64406684  0.37394453  0.71750536    -0.30700
N2335       N  0.62955654  0.35761563  0.74114774     0.13500
C2336       C  0.64051851  0.37021886  0.76832455    -0.30700
C2337       C  0.64815959  0.48022846  0.72582536    -0.31000
N2338       N  0.63437043  0.49436226  0.75167828     0.14000
H2339       H  0.64164948  0.48586746  0.70238750     0.16600
C2340       C  0.64566961  0.47861416  0.77670437    -0.31000
H2341       H  0.63745581  0.48417996  0.80019587     0.16600
H2342       H  0.63193420  0.36300725  0.79114431     0.16600
H2343       H  0.74272592  0.38670116  0.69945943     0.16700
H2344       H  0.63961618  0.36937856  0.69325511     0.16600
O2345       O  0.49818309  0.07192515  0.53047003    -0.74000
O2346       O  0.58045769  0.02530639  0.52849011    -0.74000
O2347       O  0.56351656  0.08826765  0.52802559    -0.74000
O2348       O  0.51530125  0.00881435  0.53049651    -0.74100
O2349       O  0.51590247  0.00746293  0.97886612    -0.74000
O2350       O  0.56335084  0.08704133  0.97640907    -0.74000
O2351       O  0.58083988  0.02414421  0.97684782    -0.74000
O2352       O  0.49803200  0.07028015  0.97885562    -0.74000
Ni2353     Ni  0.53937211  0.04868872  0.53121088     1.25400
Ni2354     Ni  0.53951342  0.04721593  0.97590422     1.25400
C2355       C  0.48447590  0.07874256  0.00503485     0.88200
C2356       C  0.59399007  0.01666400  0.00242029     0.88200
C2357       C  0.57173504  0.10051803  0.00185910     0.88200
C2358       C  0.50762203  0.99505166  0.00490894     0.88400
O2359       O  0.59357498  0.02669001  0.77774430    -0.74000
O2360       O  0.51398027  0.07850823  0.77841022    -0.74000
O2361       O  0.52717651  0.01435419  0.77885003    -0.74000
O2362       O  0.58048776  0.09112521  0.77701813    -0.74100
O2363       O  0.58097172  0.08975792  0.72542435    -0.74000
O2364       O  0.52823623  0.01263306  0.72724370    -0.74000
O2365       O  0.51445390  0.07688179  0.72680966    -0.74000
O2366       O  0.59454919  0.02545066  0.72613596    -0.74000
Ni2367     Ni  0.55380690  0.05277426  0.77980063     1.25400
Ni2368     Ni  0.55459307  0.05116106  0.72456127     1.25400
C2369       C  0.60686779  0.01698802  0.75185921     0.88200
C2370       C  0.50105689  0.08627155  0.75280961     0.88200
C2371       C  0.51893679  0.00078285  0.75331728     0.88200
C2372       C  0.58959189  0.10310781  0.75093305     0.88400
O2373       O  0.76033728  0.33538853  0.52714210    -0.74000
O2374       O  0.81644801  0.26083655  0.52831508    -0.74000
O2375       O  0.82747921  0.32509247  0.52752219    -0.74000
O2376       O  0.74981561  0.27133756  0.52746676    -0.74100
O2377       O  0.75195765  0.27007553  0.97582434    -0.74000
O2378       O  0.82978415  0.32341607  0.97590591    -0.74000
O2379       O  0.81847676  0.25907974  0.97666269    -0.74000
O2380       O  0.76268015  0.33396410  0.97549399    -0.74000
Ni2381     Ni  0.78851355  0.29827635  0.52946381     1.25400
Ni2382     Ni  0.79089073  0.29663676  0.97415047     1.25400
C2383       C  0.75148275  0.34639627  0.00113484     0.88200
C2384       C  0.82634124  0.24742174  0.00271526     0.88200
C2385       C  0.84164728  0.33290092  0.00170189     0.88200
C2386       C  0.73792357  0.26208609  0.00157164     0.88400
O2387       O  0.82524846  0.26322381  0.77856680    -0.74000
O2388       O  0.77949502  0.34433169  0.77455206    -0.74000
O2389       O  0.76075895  0.28109342  0.77510167    -0.74000
O2390       O  0.84353733  0.32610604  0.77858238    -0.74100
O2391       O  0.84806594  0.32427573  0.72700597    -0.74000
O2392       O  0.76507890  0.27889248  0.72354401    -0.74000
O2393       O  0.78370071  0.34227115  0.72298633    -0.74000
O2394       O  0.82958121  0.26154899  0.72698244    -0.74000
Ni2395     Ni  0.80200925  0.30377348  0.77853589     1.25400
Ni2396     Ni  0.80673608  0.30169780  0.72330429     1.25400
C2397       C  0.83497334  0.24904123  0.75324190     0.88200
C2398       C  0.77452588  0.35695113  0.74816116     0.88200
C2399       C  0.74984597  0.27149353  0.74895382     0.88200
C2400       C  0.85912329  0.33316693  0.75334111     0.88400
C2401       C  0.67812737  0.41704919  0.81549447    -0.04800
C2402       C  0.70030182  0.39600066  0.82979256    -0.04700
C2403       C  0.70486720  0.39756963  0.86158545    -0.22900
C2404       C  0.68186423  0.41440694  0.88063240     0.19400
C2405       C  0.65327520  0.42755802  0.86744488     0.16600
C2406       C  0.65192870  0.42985013  0.83482053    -0.17900
C2407       C  0.62641969  0.43697535  0.88715004    -0.19700
C2408       C  0.62842465  0.43339550  0.91931793    -0.12300
C2409       C  0.65845473  0.42372893  0.93288032     0.04400
C2410       C  0.68553821  0.41543973  0.91279962    -0.24400
H2411       H  0.71329544  0.37716494  0.81683106     0.09500
H2412       H  0.72452452  0.38346082  0.87144949     0.13100
H2413       H  0.62997858  0.43982419  0.82484678     0.13000
H2414       H  0.60351872  0.44588141  0.87771532     0.12800
H2415       H  0.60653690  0.43887681  0.93375253     0.13300
H2416       H  0.70959341  0.40974408  0.92144810     0.15300
C2417       C  0.65783792  0.42430503  0.56700952    -0.04800
C2418       C  0.62749234  0.42016510  0.58378244    -0.04700
C2419       C  0.62626066  0.42125670  0.61611278    -0.22900
C2420       C  0.65527643  0.42697832  0.63249309     0.19400
C2421       C  0.68555473  0.43286884  0.61608754     0.16600
C2422       C  0.68646800  0.43231386  0.58354910    -0.17900
C2423       C  0.71446186  0.43893347  0.63255012    -0.19700
C2424       C  0.71377853  0.43734372  0.66484885    -0.12300
C2425       C  0.68412417  0.42968127  0.68147854     0.04400
C2426       C  0.65455003  0.42656312  0.66497865    -0.24400
H2427       H  0.60443021  0.41627953  0.57193206     0.03900
H2428       H  0.60266297  0.41729022  0.62830043     0.13100
H2429       H  0.70964361  0.43752062  0.57112483     0.13000
H2430       H  0.73778421  0.44432057  0.62042832     0.12800
H2431       H  0.73660323  0.44229180  0.67667517     0.13300
H2432       H  0.63102414  0.42296591  0.67741377     0.15300
C2433       C  0.92163787  0.42863771  0.81884446    -0.04800
C2434       C  0.88994596  0.43686508  0.83190191    -0.04700
C2435       C  0.88382431  0.43718531  0.86392399    -0.22900
C2436       C  0.90858478  0.42738200  0.88387535     0.19400
C2437       C  0.93984357  0.41709367  0.87123736     0.16600
C2438       C  0.94624661  0.41791559  0.83895018    -0.17900
C2439       C  0.96376324  0.40518615  0.89106896    -0.19700
C2440       C  0.95715608  0.40448903  0.92303718    -0.12300
C2441       C  0.92699857  0.41689569  0.93632845     0.04400
C2442       C  0.90220847  0.42686156  0.91614370    -0.24400
H2443       H  0.86910915  0.44180491  0.81747905     0.09500
H2444       H  0.85930934  0.44417713  0.87300898     0.13100
H2445       H  0.97011310  0.40955681  0.82940040     0.13000
H2446       H  0.98759400  0.39631490  0.88187688     0.12800
H2447       H  0.97622426  0.39490946  0.93756597     0.13300
H2448       H  0.87766965  0.43335511  0.92521385     0.15300
C2449       C  0.93866945  0.41347983  0.68573704    -0.04800
C2450       C  0.96946257  0.40771835  0.67014696    -0.04700
C2451       C  0.97153747  0.40563708  0.63774082    -0.22900
C2452       C  0.94287903  0.40959938  0.62028179     0.19400
C2453       C  0.91153641  0.41307173  0.63568417     0.16600
C2454       C  0.90952378  0.41361944  0.66815707    -0.17900
C2455       C  0.88279801  0.41661643  0.61837178    -0.19700
C2456       C  0.88527538  0.41815457  0.58610299    -0.12300
C2457       C  0.91652460  0.41661527  0.57034013     0.04400
C2458       C  0.94510030  0.41065187  0.58776752    -0.24400
H2459       H  0.99206303  0.40514149  0.68294756     0.09500
H2460       H  0.99571451  0.40195418  0.62632601     0.13100
H2461       H  0.88522593  0.41550071  0.67974663     0.13000
H2462       H  0.85842400  0.41872550  0.62980417     0.12800
H2463       H  0.86257768  0.42053468  0.57341671     0.13300
H2464       H  0.96919192  0.40705561  0.57620057     0.15300
C2465       C  0.85503155  0.01253490  0.73521558    -0.04800
C2466       C  0.83410575  0.51079205  0.70972017    -0.04700
C2467       C  0.80869899  0.03358423  0.70667868    -0.22900
C2468       C  0.80370946  0.05786641  0.72921637     0.19400
C2469       C  0.82559489  0.06050002  0.75418652     0.16600
C2470       C  0.85134689  0.03800344  0.75684368    -0.17900
C2471       C  0.82056517  0.08483908  0.77669388    -0.19700
C2472       C  0.79321320  0.10550350  0.77518227    -0.12300
C2473       C  0.77063014  0.10220620  0.75106537     0.04400
C2474       C  0.77649152  0.07882140  0.72775531    -0.24400
H2475       H  0.83630405  0.49120104  0.69289379     0.09500
H2476       H  0.79225919  0.53118110  0.68735711     0.13100
H2477       H  0.86780911  0.03970110  0.77620814     0.13000
H2478       H  0.83736585  0.08749544  0.79575091     0.12800
H2479       H  0.78971563  0.12410138  0.79286252     0.13300
H2480       H  0.75918711  0.07616107  0.70911169     0.15300
C2481       C  0.84001394  0.01003804  0.50518993    -0.04800
C2482       C  0.83983832  0.53180893  0.53023708    -0.04700
C2483       C  0.81695560  0.05768614  0.53203399    -0.22900
C2484       C  0.79322223  0.06122639  0.50918578     0.19400
C2485       C  0.79308626  0.03926463  0.48381275     0.16600
C2486       C  0.81656799  0.01389128  0.98189300    -0.17900
C2487       C  0.76918525  0.04287455  0.96105999    -0.19700
C2488       C  0.74545821  0.06774517  0.96361998    -0.12300
C2489       C  0.74510384  0.08950357  0.48900045     0.04400
C2490       C  0.76940903  0.08616841  0.51154398    -0.24400
H2491       H  0.85782557  0.52972033  0.54826490     0.09500
H2492       H  0.81749141  0.57399020  0.55157914     0.13100
H2493       H  0.81603971  0.99668979  0.96275917     0.13000
H2494       H  0.76863157  0.02628208  0.94143452     0.12800
H2495       H  0.72695924  0.06956996  0.94600896     0.13300
H2496       H  0.76987760  0.10308114  0.53089675     0.15300
C2497       C  0.65697928  0.18093586  0.93276396    -0.04800
C2498       C  0.62597213  0.18564479  0.91881120    -0.04700
C2499       C  0.62362576  0.18669198  0.88672198    -0.22900
C2500       C  0.65238064  0.18474432  0.86769207     0.19400
C2501       C  0.68392222  0.18310881  0.88130271     0.16600
C2502       C  0.68606591  0.18124526  0.91366568    -0.17900
C2503       C  0.71275279  0.18373990  0.86228233    -0.19700
C2504       C  0.71023747  0.18462689  0.83015512    -0.12300
C2505       C  0.67894703  0.18316577  0.81608503     0.04400
C2506       C  0.65004687  0.18482280  0.83531489    -0.24400
H2507       H  0.60316677  0.18861564  0.93258023     0.09500
H2508       H  0.59927017  0.18919696  0.87681544     0.13100
H2509       H  0.71031327  0.17989807  0.92395008     0.13000
H2510       H  0.73723783  0.18360228  0.87221028     0.12800
H2511       H  0.73304278  0.18582852  0.81616868     0.13300
H2512       H  0.62573130  0.18667916  0.82530679     0.15300
C2513       C  0.65953653  0.17573923  0.56633798    -0.04800
C2514       C  0.62926203  0.18372236  0.58237098    -0.04700
C2515       C  0.62697927  0.18489163  0.61455940    -0.22900
C2516       C  0.65539619  0.18041869  0.63182837     0.19400
C2517       C  0.68660887  0.17537074  0.61637092     0.16600
C2518       C  0.68851130  0.17271579  0.58374279    -0.17900
C2519       C  0.71538825  0.17414695  0.63387600    -0.19700
C2520       C  0.71299013  0.17687753  0.66622066    -0.12300
C2521       C  0.68167330  0.17855336  0.68204357     0.04400
C2522       C  0.65307351  0.18177127  0.66432048    -0.24400
H2523       H  0.60690637  0.18928111  0.57009619     0.09500
H2524       H  0.60302242  0.19000313  0.62592600     0.13100
H2525       H  0.71251074  0.16919764  0.57198055     0.13000
H2526       H  0.73977733  0.17159946  0.62257469     0.12800
H2527       H  0.73582728  0.17742554  0.67888031     0.13300
H2528       H  0.62895671  0.18595455  0.67567928     0.15300
C2529       C  0.60319285  0.33460090  0.73750477    -0.04800
C2530       C  0.57853965  0.33993966  0.71566154    -0.04700
C2531       C  0.55226562  0.31837802  0.71223986    -0.22900
C2532       C  0.55021522  0.29087592  0.73048445     0.19400
C2533       C  0.57531334  0.28483160  0.75204961     0.16600
C2534       C  0.60156466  0.30683614  0.75553801    -0.17900
C2535       C  0.57332155  0.25717958  0.77012621    -0.19700
C2536       C  0.54599083  0.23660205  0.76795299    -0.12300
C2537       C  0.52036626  0.24300783  0.74739142     0.04400
C2538       C  0.52305340  0.26978757  0.72812867    -0.24400
H2539       H  0.57922121  0.36132328  0.70167264     0.09500
H2540       H  0.53332950  0.32343957  0.69560943     0.13100
H2541       H  0.62070814  0.30245456  0.77216258     0.13000
H2542       H  0.59250025  0.25184945  0.78645962     0.12800
H2543       H  0.54451852  0.21582796  0.78270890     0.13300
H2544       H  0.00324586  0.27493092  0.71238974     0.15300
C2545       C  0.59571864  0.32346552  0.49998454    -0.04800
C2546       C  0.59649612  0.30426440  0.02655188    -0.04700
C2547       C  0.57717019  0.27647639  0.02889230    -0.22900
C2548       C  0.55663281  0.26722446  0.00472639     0.19400
C2549       C  0.55754849  0.28481922  0.47702250     0.16600
C2550       C  0.57719524  0.31262959  0.47472730    -0.17900
C2551       C  0.53731751  0.27537985  0.45270811    -0.19700
C2552       C  0.51452874  0.25041213  0.45664132    -0.12300
C2553       C  0.51172265  0.23401110  0.48488503     0.04400
C2554       C  0.53403529  0.24172786  0.00837399    -0.24400
H2555       H  0.61142611  0.31097442  0.04600775     0.09500
H2556       H  0.57738804  0.26289466  0.05007812     0.13100
H2557       H  0.57628747  0.32686370  0.45400856     0.13000
H2558       H  0.53793700  0.28833220  0.43112980     0.12800
H2559       H  0.49786044  0.24532914  0.43801818     0.13300
H2560       H  0.03293536  0.22885521  0.02996476     0.15300
C2561       C  0.92135122  0.17723340  0.81972589    -0.04800
C2562       C  0.92499178  0.20740401  0.83466998    -0.04700
C2563       C  0.92177960  0.21061636  0.86685460    -0.22900
C2564       C  0.91417542  0.18383501  0.88494591     0.19400
C2565       C  0.90904046  0.15365203  0.87039304     0.16600
C2566       C  0.91202657  0.15065951  0.83792652    -0.17900
C2567       C  0.90088211  0.12704286  0.88862461    -0.19700
C2568       C  0.89988744  0.12989016  0.92098708    -0.12300
C2569       C  0.90702341  0.15943213  0.93587033     0.04400
C2570       C  0.91189273  0.18673774  0.91736455    -0.24400
H2571       H  0.92963961  0.22886186  0.82141569     0.09500
H2572       H  0.92519544  0.23410703  0.87759136     0.13100
H2573       H  0.90696208  0.12763736  0.82688145     0.13000
H2574       H  0.89591107  0.10384344  0.87788117     0.12800
H2575       H  0.89365096  0.10880797  0.93425915     0.13300
H2576       H  0.91532102  0.21013802  0.92827978     0.15300
C2577       C  0.91754530  0.16671776  0.68633917    -0.04800
C2578       C  0.90445042  0.13774290  0.67440492    -0.04700
C2579       C  0.90054068  0.13298505  0.64266627    -0.22900
C2580       C  0.90862236  0.15747030  0.62196690     0.19400
C2581       C  0.91890198  0.18771311  0.63362660     0.16600
C2582       C  0.92305628  0.19228185  0.66573633    -0.17900
C2583       C  0.92475909  0.21279227  0.61288397    -0.19700
C2584       C  0.92237040  0.20735501  0.58093849    -0.12300
C2585       C  0.91527785  0.17647590  0.56879906     0.04400
C2586       C  0.90668242  0.15208701  0.58982357    -0.24400
H2587       H  0.89756762  0.11833945  0.68970209     0.09500
H2588       H  0.89147829  0.10998455  0.63430183     0.13100
H2589       H  0.93023307  0.21570981  0.67456050     0.13000
H2590       H  0.93144592  0.23655281  0.62131726     0.12800
H2591       H  0.92642758  0.22739184  0.56563188     0.13300
H2592       H  0.89856581  0.12882972  0.58129357     0.15300
C2593       C  0.91446977  0.67102694  0.03346609     0.30500
C2594       C  0.91015571  0.66283358  0.47090676     0.30500
C2595       C  0.88191950  0.68242666  0.01960405    -0.05700
C2596       C  0.94160049  0.68785129  0.01360287    -0.06500
C2597       C  0.91796799  0.63578146  0.02153043    -0.06400
C2598       C  0.87976345  0.67854545  0.48750366    -0.05700
C2599       C  0.93934682  0.68342520  0.48184848    -0.06500
C2600       C  0.91579252  0.63155687  0.48890880    -0.06400
C2601       C  0.85808982  0.70206549  0.47798912    -0.31800
N2602       N  0.84653326  0.71916860  0.50308484     0.14700
C2603       C  0.86111546  0.70764662  0.02843747    -0.31800
H2604       H  0.85968212  0.71917694  0.05110925     0.16700
C2605       C  0.96618977  0.69846843  0.46804696    -0.30700
N2606       N  0.98433001  0.71291930  0.99033957     0.13500
C2607       C  0.96976212  0.70604771  0.01833512    -0.30700
C2608       C  0.93880881  0.60777185  0.48050954    -0.31000
N2609       N  0.95420835  0.59728037  0.50572034     0.14000
H2610       H  0.94805183  0.60281568  0.45708018     0.16600
C2611       C  0.94189461  0.61402902  0.03060529    -0.31000
H2612       H  0.95379928  0.61473063  0.05274568     0.16600
H2613       H  0.97853404  0.71430385  0.04050542     0.16600
H2614       H  0.85374469  0.70839792  0.45426017     0.16700
H2615       H  0.97214211  0.69875342  0.44349533     0.16600
C2616       C  0.92179940  0.67112498  0.22118647     0.30500
C2617       C  0.92302550  0.67498525  0.28415002     0.30500
C2618       C  0.93227291  0.63998383  0.23738624    -0.05700
C2619       C  0.94658974  0.69590485  0.23437044    -0.06500
C2620       C  0.88868323  0.68055914  0.23767263    -0.06400
C2621       C  0.93271489  0.64185968  0.26990497    -0.05700
C2622       C  0.94722273  0.69743116  0.26667260    -0.06500
C2623       C  0.88930196  0.68272602  0.27014076    -0.06400
C2624       C  0.95778225  0.62111298  0.27859754    -0.31800
N2625       N  0.97184097  0.60637997  0.25317961     0.14700
C2626       C  0.95707861  0.61826681  0.22806736    -0.31800
H2627       H  0.96646997  0.61458603  0.20449313     0.16700
C2628       C  0.97494116  0.71468102  0.27450601    -0.30700
N2629       N  0.99061395  0.72480293  0.24823566     0.13500
C2630       C  0.97382438  0.71326050  0.22350807    -0.30700
C2631       C  0.86710137  0.70700094  0.27915932    -0.31000
N2632       N  0.85321654  0.71936408  0.25386420     0.14000
H2633       H  0.86522581  0.71818212  0.30198144     0.16600
C2634       C  0.86625736  0.70360517  0.22864404    -0.31000
H2635       H  0.86366967  0.71163793  0.20513264     0.16600
H2636       H  0.98219498  0.71556034  0.19961210     0.16600
H2637       H  0.96790265  0.62006360  0.30149437     0.16700
H2638       H  0.98389522  0.71863629  0.29762967     0.16600
C2639       C  0.66108322  0.67473136  0.03065365     0.30500
C2640       C  0.65924548  0.67752599  0.46775962     0.30500
C2641       C  0.66990684  0.70743849  0.01692927    -0.05700
C2642       C  0.68511317  0.65134864  0.01254173    -0.06500
C2643       C  0.62742444  0.66639542  0.01661078    -0.06400
C2644       C  0.66919938  0.70896333  0.48445044    -0.05700
C2645       C  0.68401854  0.65280585  0.48030089    -0.06500
C2646       C  0.62636735  0.66747949  0.48426326    -0.06400
C2647       C  0.69378376  0.73062259  0.47578229    -0.31800
N2648       N  0.70861064  0.74245741  0.50126231     0.14700
C2649       C  0.69454041  0.72827868  0.02627576    -0.31800
H2650       H  0.70450626  0.72969220  0.04925832     0.16700
C2651       C  0.70582694  0.62978597  0.46811433    -0.30700
N2652       N  0.72043416  0.61456331  0.99187414     0.13500
C2653       C  0.70772877  0.62744161  0.01902129    -0.30700
C2654       C  0.60450628  0.64327645  0.47564493    -0.31000
N2655       N  0.59147872  0.62908704  0.50113668     0.14000
H2656       H  0.60186657  0.63372489  0.45237112     0.16600
C2657       C  0.60586453  0.64239502  0.02595608    -0.31000
H2658       H  0.60454266  0.63213371  0.04882477     0.16600
H2659       H  0.71390040  0.61940603  0.04183035     0.16600
H2660       H  0.70294671  0.73448072  0.45232925     0.16700
H2661       H  0.71080803  0.62457053  0.44379552     0.16600
C2662       C  0.67753876  0.68102573  0.28058410     0.30500
C2663       C  0.67947272  0.67860520  0.21737808     0.30500
C2664       C  0.68611752  0.71277861  0.26458091    -0.05700
C2665       C  0.70236381  0.65701707  0.26534647    -0.06500
C2666       C  0.64454744  0.67059505  0.26582158    -0.06400
C2667       C  0.68742343  0.71154395  0.23214792    -0.05700
C2668       C  0.70347829  0.65572361  0.23325456    -0.06500
C2669       C  0.64548911  0.66939979  0.23298813    -0.06400
C2670       C  0.71002067  0.73485868  0.22284767    -0.31800
N2671       N  0.72145798  0.75061298  0.24810753     0.14700
C2672       C  0.70726557  0.73711253  0.27352449    -0.31800
H2673       H  0.71517791  0.74173184  0.29690429     0.16700
C2674       C  0.72797493  0.63381966  0.22439034    -0.30700
N2675       N  0.74208022  0.62262623  0.25026323     0.13500
C2676       C  0.72598349  0.63594838  0.27535775    -0.30700
C2677       C  0.62424732  0.64460758  0.22463051    -0.31000
N2678       N  0.61017041  0.63138767  0.25023305     0.14000
H2679       H  0.62264489  0.63410922  0.20162475     0.16600
C2680       C  0.62306347  0.64627460  0.27519309    -0.31000
H2681       H  0.62053581  0.63712371  0.29843768     0.16600
H2682       H  0.73142032  0.63077438  0.29913351     0.16600
H2683       H  0.72055634  0.73727877  0.19964766     0.16700
H2684       H  0.73580706  0.62716865  0.20097982     0.16600
C2685       C  0.91857318  0.91883158  0.03493180     0.30500
C2686       C  0.92211873  0.91891789  0.47178192     0.30500
C2687       C  0.90961670  0.88688132  0.01883556    -0.05700
C2688       C  0.89564945  0.94330791  0.01946916    -0.06500
C2689       C  0.95292739  0.92763960  0.02069992    -0.06400
C2690       C  0.91115623  0.88691855  0.48626314    -0.05700
C2691       C  0.89728930  0.94356823  0.48714620    -0.06500
C2692       C  0.95466481  0.92741634  0.48813584    -0.06400
C2693       C  0.88639324  0.86606036  0.47674223    -0.31800
N2694       N  0.87095151  0.85287404  0.50178850     0.14700
C2695       C  0.88470932  0.86559204  0.02736133    -0.31800
H2696       H  0.87450203  0.86267947  0.05061551     0.16700
C2697       C  0.87705109  0.96876351  0.47837468    -0.30700
N2698       N  0.86301128  0.98310299  0.00423599     0.13500
C2699       C  0.87464818  0.96794769  0.02936227    -0.30700
C2700       C  0.97699518  0.95113082  0.47965141    -0.31000
N2701       N  0.98888810  0.96570800  0.50514072     0.14000
H2702       H  0.98031095  0.96038009  0.45649436     0.16600
C2703       C  0.97396638  0.95218587  0.03015072    -0.31000
H2704       H  0.97444941  0.96255724  0.05331298     0.16600
H2705       H  0.86854319  0.97464483  0.05317780     0.16600
H2706       H  0.87758005  0.86384264  0.45337075     0.16700
H2707       H  0.87385254  0.97725467  0.45516940     0.16600
C2708       C  0.92738928  0.92650697  0.28355048     0.30500
C2709       C  0.93602800  0.91884611  0.22091916     0.30500
C2710       C  0.92158214  0.89235297  0.27057009    -0.05700
C2711       C  0.90514637  0.94769328  0.26372626    -0.06500
C2712       C  0.96257588  0.93488846  0.27050798    -0.06400
C2713       C  0.92616502  0.88844710  0.23840060    -0.05700
C2714       C  0.90955936  0.94351593  0.23191762    -0.06500
C2715       C  0.96701634  0.93114877  0.23794193    -0.06400
C2716       C  0.90535703  0.86392444  0.22935970    -0.31800
N2717       N  0.88841990  0.85282637  0.25445004     0.14700
C2718       C  0.89781801  0.87013552  0.27953114    -0.31800
H2719       H  0.88474486  0.87001696  0.30184203     0.16700
C2720       C  0.89276923  0.96796245  0.21802942    -0.30700
N2721       N  0.87786882  0.98668058  0.24040411     0.13500
C2722       C  0.88619991  0.97526141  0.26837003    -0.30700
C2723       C  0.98901891  0.95509905  0.22883988    -0.31000
N2724       N  0.99896013  0.97205564  0.25393791     0.14000
H2725       H  0.99411324  0.96220326  0.20519430     0.16600
C2726       C  0.98254450  0.96042142  0.27915763    -0.31000
H2727       H  0.98164443  0.97235261  0.30165017     0.16600
H2728       H  0.87953889  0.98673374  0.29038342     0.16600
H2729       H  0.89935057  0.85795732  0.20569473     0.16700
H2730       H  0.89257987  0.97279401  0.19352998     0.16600
C2731       C  0.66073474  0.92294725  0.46835438     0.30500
C2732       C  0.65945693  0.92345052  0.03153032     0.30500
C2733       C  0.65598097  0.95630151  0.48443302    -0.05700
C2734       C  0.63333941  0.90231636  0.48371663    -0.06500
C2735       C  0.69265601  0.90976282  0.48331370    -0.06400
C2736       C  0.65505889  0.95624830  0.01691155    -0.05700
C2737       C  0.63280879  0.90248670  0.01614384    -0.06500
C2738       C  0.69192938  0.91075054  0.01593488    -0.06400
C2739       C  0.63429154  0.98112503  0.02679959    -0.31800
N2740       N  0.62310707  0.99663490  0.50192092     0.14700
C2741       C  0.63651186  0.98215205  0.47617945    -0.31800
H2742       H  0.62870139  0.98732806  0.45306192     0.16700
C2743       C  0.61963657  0.87336060  0.02505348    -0.30700
N2744       N  0.61099904  0.85594036  0.99974002     0.13500
C2745       C  0.62018969  0.87308713  0.47442669    -0.30700
C2746       C  0.71401791  0.88782995  0.02570487    -0.31000
N2747       N  0.72845494  0.87305832  0.50065051     0.14000
H2748       H  0.71678875  0.88013224  0.04929745     0.16600
C2749       C  0.71426181  0.88458067  0.47509303    -0.31000
H2750       H  0.71672855  0.87251936  0.45278757     0.16600
H2751       H  0.62030993  0.86388720  0.45083782     0.16600
H2752       H  0.62377331  0.98416520  0.05006144     0.16700
H2753       H  0.61852009  0.86480427  0.04851317     0.16600
C2754       C  0.68097464  0.92244722  0.27990692     0.30500
C2755       C  0.68378068  0.92672656  0.21659188     0.30500
C2756       C  0.71697372  0.92136616  0.26428586    -0.05700
C2757       C  0.66210145  0.89627906  0.26167811    -0.06500
C2758       C  0.66692056  0.95405050  0.26649961    -0.06400
C2759       C  0.71753013  0.92123905  0.23147563    -0.05700
C2760       C  0.66369543  0.89862636  0.22961253    -0.06500
C2761       C  0.66872628  0.95583979  0.23427634    -0.06400
C2762       C  0.74127750  0.89838188  0.22192167    -0.31800
N2763       N  0.75699918  0.88717314  0.24668165     0.14700
C2764       C  0.74439380  0.90295460  0.27188448    -0.31800
H2765       H  0.75378352  0.89931085  0.29467628     0.16700
C2766       C  0.64398806  0.87490827  0.21757008    -0.30700
N2767       N  0.62946449  0.85867253  0.24126556     0.13500
C2768       C  0.64057809  0.87123639  0.26839974    -0.30700
C2769       C  0.64859887  0.98088695  0.22574108    -0.31000
N2770       N  0.63472401  0.99494707  0.25159058     0.14000
H2771       H  0.64191958  0.98637726  0.20231428     0.16600
C2772       C  0.64617125  0.97929770  0.27661219    -0.31000
H2773       H  0.63783497  0.98474174  0.30009574     0.16600
H2774       H  0.63207389  0.86404184  0.29124821     0.16600
H2775       H  0.74268179  0.88681377  0.19923813     0.16700
H2776       H  0.63948687  0.87030277  0.19333248     0.16600
O2777       O  0.49820872  0.57205188  0.03043759    -0.74000
O2778       O  0.58028475  0.52506145  0.02860012    -0.74000
O2779       O  0.56362556  0.58813112  0.02802097    -0.74000
O2780       O  0.51506960  0.50883450  0.03056043    -0.74100
O2781       O  0.51573438  0.50744075  0.47892512    -0.74000
O2782       O  0.56347103  0.58684907  0.47639987    -0.74000
O2783       O  0.58070428  0.52387655  0.47695597    -0.74000
O2784       O  0.49809562  0.57033380  0.47881660    -0.74000
Ni2785     Ni  0.53930025  0.54863783  0.03124960     1.25400
Ni2786     Ni  0.53948386  0.54710988  0.47593934     1.25400
C2787       C  0.48456110  0.57891124  0.50497107     0.88200
C2788       C  0.59376984  0.51631152  0.50254330     0.88200
C2789       C  0.57189323  0.60033392  0.50183181     0.88200
C2790       C  0.50742079  0.49505108  0.50496755     0.88400
O2791       O  0.59345292  0.52641120  0.27779767    -0.74000
O2792       O  0.51413035  0.57860673  0.27834135    -0.74000
O2793       O  0.52702185  0.51436200  0.27886412    -0.74000
O2794       O  0.58069653  0.59091969  0.27698538    -0.74100
O2795       O  0.58118841  0.58950141  0.22539216    -0.74000
O2796       O  0.52814176  0.51258090  0.22725821    -0.74000
O2797       O  0.51463534  0.57689525  0.22674050    -0.74000
O2798       O  0.59446997  0.52514532  0.22618765    -0.74000
Ni2799     Ni  0.55382243  0.55268446  0.27979643     1.25400
Ni2800     Ni  0.55464789  0.55101058  0.22455640     1.25400
C2801       C  0.60670101  0.51661810  0.25192471     0.88200
C2802       C  0.50128041  0.58640382  0.25271608     0.88200
C2803       C  0.51881106  0.50075944  0.25333444     0.88200
C2804       C  0.58984872  0.60285061  0.25088778     0.88400
O2805       O  0.76021892  0.83549805  0.02711835    -0.74000
O2806       O  0.81643169  0.76099058  0.02817112    -0.74000
O2807       O  0.82736834  0.82527903  0.02751293    -0.74000
O2808       O  0.74979087  0.77140423  0.02735111    -0.74100
O2809       O  0.75192762  0.77023148  0.47571199    -0.74000
O2810       O  0.82968321  0.82368451  0.47589676    -0.74000
O2811       O  0.81846610  0.75932983  0.47652042    -0.74000
O2812       O  0.76259193  0.83415201  0.47547217    -0.74000
Ni2813     Ni  0.78844258  0.79840001  0.02939254     1.25400
Ni2814     Ni  0.79082937  0.79685428  0.47408140     1.25400
C2815       C  0.75140352  0.84657095  0.50111863     0.88200
C2816       C  0.82634537  0.74763906  0.50255206     0.88200
C2817       C  0.84151547  0.83316929  0.50170718     0.88200
C2818       C  0.73792272  0.76215860  0.50144885     0.88400
O2819       O  0.82535653  0.76331715  0.27834833    -0.74000
O2820       O  0.77946956  0.84434802  0.27429679    -0.74000
O2821       O  0.76084208  0.78106655  0.27480504    -0.74000
O2822       O  0.84350752  0.82622346  0.27844903    -0.74100
O2823       O  0.84812890  0.82441639  0.22687614    -0.74000
O2824       O  0.76522636  0.77887168  0.22325082    -0.74000
O2825       O  0.78375231  0.84230783  0.22273324    -0.74000
O2826       O  0.82975443  0.76167541  0.22676546    -0.74000
Ni2827     Ni  0.80203389  0.80382041  0.27830882     1.25400
Ni2828     Ni  0.80684454  0.80176971  0.22307968     1.25400
C2829       C  0.83515258  0.74917624  0.25302334     0.88200
C2830       C  0.77455682  0.85698401  0.24790161     0.88200
C2831       C  0.74998175  0.77143647  0.24864744     0.88200
C2832       C  0.85912553  0.83331313  0.25323660     0.88400
C2833       C  0.67867194  0.91782413  0.31543300    -0.04800
C2834       C  0.70091341  0.89686150  0.32975995    -0.04700
C2835       C  0.70544805  0.89843009  0.36155298    -0.22900
C2836       C  0.68234914  0.91514148  0.38059107     0.19400
C2837       C  0.65372552  0.92820387  0.36737750     0.16600
C2838       C  0.65239544  0.93049622  0.33474645    -0.17900
C2839       C  0.62682101  0.93752516  0.38706324    -0.19700
C2840       C  0.62880738  0.93394926  0.41923261    -0.12300
C2841       C  0.65884316  0.92433932  0.43282148     0.04400
C2842       C  0.68596615  0.91610758  0.41277001    -0.24400
H2843       H  0.71385039  0.87795844  0.31686235     0.09500
H2844       H  0.72513162  0.88436061  0.37142475     0.13100
H2845       H  0.63041135  0.94038745  0.32475357     0.13000
H2846       H  0.60390126  0.94636876  0.37761153     0.12800
H2847       H  0.60689566  0.93938577  0.43365014     0.13300
H2848       H  0.71000636  0.91040783  0.42146370     0.15300
C2849       C  0.65821530  0.92506583  0.06693031    -0.04800
C2850       C  0.62783210  0.92111459  0.08369321    -0.04700
C2851       C  0.62659249  0.92220763  0.11601969    -0.22900
C2852       C  0.65563768  0.92775754  0.13240324     0.19400
C2853       C  0.68595537  0.93349814  0.11600356     0.16600
C2854       C  0.68688267  0.93292833  0.08346863    -0.17900
C2855       C  0.71488628  0.93942685  0.13246813    -0.19700
C2856       C  0.71418002  0.93784680  0.16476379    -0.12300
C2857       C  0.68448338  0.93030970  0.18138757     0.04400
C2858       C  0.65489967  0.92732439  0.16488600    -0.24400
H2859       H  0.60474860  0.91737109  0.07183855     0.03900
H2860       H  0.60296471  0.91837515  0.12820121     0.13100
H2861       H  0.71009484  0.93800101  0.07104622     0.13000
H2862       H  0.73824097  0.94470412  0.12035077     0.12800
H2863       H  0.73702463  0.94269499  0.17659525     0.13300
H2864       H  0.63134995  0.92384310  0.17731529     0.15300
C2865       C  0.92157698  0.92884261  0.31883678    -0.04800
C2866       C  0.88983520  0.93691534  0.33187381    -0.04700
C2867       C  0.88369118  0.93720314  0.36389462    -0.22900
C2868       C  0.90849406  0.92752767  0.38386063     0.19400
C2869       C  0.93981697  0.91740553  0.37123669     0.16600
C2870       C  0.94623369  0.91825671  0.33895524    -0.17900
C2871       C  0.96379308  0.90561867  0.39107275    -0.19700
C2872       C  0.95717033  0.90486683  0.42303239    -0.12300
C2873       C  0.92694997  0.91713990  0.43631711     0.04400
C2874       C  0.90211135  0.92698413  0.41612930    -0.24400
H2875       H  0.86899513  0.94178629  0.31742611     0.09500
H2876       H  0.85913626  0.94407341  0.37296713     0.13100
H2877       H  0.97014730  0.91001261  0.32942120     0.13000
H2878       H  0.98767688  0.89687509  0.38189021     0.12800
H2879       H  0.97628082  0.89535887  0.43755590     0.13300
H2880       H  0.87755262  0.93340828  0.42521085     0.15300
C2881       C  0.93857732  0.91370890  0.18573195    -0.04800
C2882       C  0.96935016  0.90788545  0.17013016    -0.04700
C2883       C  0.97141085  0.90585881  0.13772292    -0.22900
C2884       C  0.94276054  0.90993622  0.12027666     0.19400
C2885       C  0.91142960  0.91347006  0.13568647     0.16600
C2886       C  0.90942557  0.91394916  0.16815946    -0.17900
C2887       C  0.88270002  0.91712787  0.11838024    -0.19700
C2888       C  0.88517676  0.91869006  0.08610977    -0.12300
C2889       C  0.91641765  0.91705039  0.07033953     0.04400
C2890       C  0.94497864  0.91101057  0.08776533    -0.24400
H2891       H  0.99194494  0.90522501  0.18292311     0.09500
H2892       H  0.99557515  0.90212376  0.12629758     0.13100
H2893       H  0.88513219  0.91585865  0.17975643     0.13000
H2894       H  0.85833227  0.91928945  0.12981844     0.12800
H2895       H  0.86248621  0.92114290  0.07342710     0.13300
H2896       H  0.96905818  0.90733896  0.07619839     0.15300
C2897       C  0.85507422  0.51230955  0.23517175    -0.04800
C2898       C  0.83411305  0.01102834  0.20972480    -0.04700
C2899       C  0.80874349  0.53340127  0.20666722    -0.22900
C2900       C  0.80379186  0.55767791  0.22921754     0.19400
C2901       C  0.82568009  0.56027352  0.25418579     0.16600
C2902       C  0.85141937  0.53776804  0.25681199    -0.17900
C2903       C  0.82067655  0.58459112  0.27671824    -0.19700
C2904       C  0.79336188  0.60529767  0.27521432    -0.12300
C2905       C  0.77079771  0.60206242  0.25107752     0.04400
C2906       C  0.77661682  0.57867491  0.22776247    -0.24400
H2907       H  0.83633438  0.99143252  0.19290580     0.09500
H2908       H  0.79225210  0.03135972  0.18733931     0.13100
H2909       H  0.86789853  0.53945479  0.27616265     0.13000
H2910       H  0.83747604  0.58720580  0.29578116     0.12800
H2911       H  0.78988997  0.62388827  0.29290520     0.13300
H2912       H  0.75931791  0.57604994  0.20911125     0.15300
C2913       C  0.83985582  0.50949615  0.00535606    -0.04800
C2914       C  0.83998028  0.03230690  0.03011777    -0.04700
C2915       C  0.81688957  0.55723939  0.03209117    -0.22900
C2916       C  0.79318755  0.56078456  0.00921271     0.19400
C2917       C  0.79297898  0.53874035  0.98391094     0.16600
C2918       C  0.81637099  0.51330312  0.48206443    -0.17900
C2919       C  0.76907106  0.54233986  0.46113544    -0.19700
C2920       C  0.74545551  0.56732032  0.46358864    -0.12300
C2921       C  0.74521257  0.58918016  0.98889482     0.04400
C2922       C  0.76948410  0.58582414  0.01146706    -0.24400
H2923       H  0.85796634  0.03020508  0.04814369     0.09500
H2924       H  0.81752679  0.07437319  0.05158377     0.13100
H2925       H  0.81580858  0.49605004  0.46297548     0.13000
H2926       H  0.76845703  0.52567461  0.44157032     0.12800
H2927       H  0.72697164  0.56915922  0.44596449     0.13300
H2928       H  0.77001259  0.60280151  0.03076439     0.15300
C2929       C  0.65719407  0.68074059  0.43259550    -0.04800
C2930       C  0.62616391  0.68527396  0.41863351    -0.04700
C2931       C  0.62381755  0.68634176  0.38654792    -0.22900
C2932       C  0.65258566  0.68460466  0.36752621     0.19400
C2933       C  0.68413480  0.68314573  0.38114025     0.16600
C2934       C  0.68628419  0.68123661  0.41350423    -0.17900
C2935       C  0.71295845  0.68396012  0.36211830    -0.19700
C2936       C  0.71043382  0.68480950  0.32998690    -0.12300
C2937       C  0.67914798  0.68319198  0.31591942     0.04400
C2938       C  0.65024714  0.68470003  0.33515206    -0.24400
H2939       H  0.60333587  0.68811700  0.43238871     0.09500
H2940       H  0.59944846  0.68870515  0.37663770     0.13100
H2941       H  0.71053407  0.67998117  0.42379556     0.13000
H2942       H  0.73744468  0.68395342  0.37204563     0.12800
H2943       H  0.73322933  0.68607848  0.31599321     0.13300
H2944       H  0.62591991  0.68643644  0.32515100     0.15300
C2945       C  0.65980423  0.67552587  0.06617140    -0.04800
C2946       C  0.62954345  0.68356832  0.08219726    -0.04700
C2947       C  0.62724088  0.68468521  0.11438403    -0.22900
C2948       C  0.65563777  0.68012990  0.13165979     0.19400
C2949       C  0.68685032  0.67504902  0.11620964     0.16600
C2950       C  0.68876413  0.67242117  0.08358092    -0.17900
C2951       C  0.71562047  0.67378719  0.13372221    -0.19700
C2952       C  0.71321612  0.67654283  0.16606427    -0.12300
C2953       C  0.68189653  0.67825163  0.18188209     0.04400
C2954       C  0.65330251  0.68146620  0.16415197    -0.24400
H2955       H  0.60721073  0.68919490  0.06991401     0.09500
H2956       H  0.60328968  0.68983575  0.12574471     0.13100
H2957       H  0.71276331  0.66887816  0.07182473     0.13000
H2958       H  0.74001146  0.67121644  0.12242734     0.12800
H2959       H  0.73605198  0.67710206  0.17872307     0.13300
H2960       H  0.62918511  0.68566065  0.17550674     0.15300
C2961       C  0.60306949  0.83568093  0.23770901    -0.04800
C2962       C  0.57840201  0.84098334  0.21587279    -0.04700
C2963       C  0.55216138  0.81938416  0.21245900    -0.22900
C2964       C  0.55016015  0.79188116  0.23070508     0.19400
C2965       C  0.57523839  0.78590856  0.25230928     0.16600
C2966       C  0.60145500  0.80794942  0.25578748    -0.17900
C2967       C  0.57328258  0.75827059  0.27040587    -0.19700
C2968       C  0.54603874  0.73759872  0.26816548    -0.12300
C2969       C  0.52046008  0.74390038  0.24752397     0.04400
C2970       C  0.52308270  0.77070270  0.22828781    -0.24400
H2971       H  0.57906601  0.86235239  0.20186212     0.09500
H2972       H  0.53322828  0.82440122  0.19581298     0.13100
H2973       H  0.62060441  0.80360302  0.27241699     0.13000
H2974       H  0.59243579  0.75300731  0.28678498     0.12800
H2975       H  0.54460891  0.71681809  0.28291592     0.13300
H2976       H  0.00329888  0.77577456  0.21250020     0.15300
C2977       C  0.59540331  0.82459232  0.00004060    -0.04800
C2978       C  0.59624272  0.80530785  0.52654770    -0.04700
C2979       C  0.57686649  0.77755016  0.52886338    -0.22900
C2980       C  0.55621379  0.76842666  0.50473859     0.19400
C2981       C  0.55695197  0.78619138  0.97713519     0.16600
C2982       C  0.57665650  0.81395793  0.97486141    -0.17900
C2983       C  0.53655416  0.77692357  0.95288513    -0.19700
C2984       C  0.51386763  0.75185992  0.95675190    -0.12300
C2985       C  0.51133805  0.73519606  0.98485974     0.04400
C2986       C  0.53371215  0.74284810  0.50831546    -0.24400
H2987       H  0.61129651  0.81190975  0.54595340     0.09500
H2988       H  0.57717437  0.76386521  0.54998274     0.13100
H2989       H  0.57567156  0.82829724  0.95421638     0.13000
H2990       H  0.53701107  0.79003966  0.93139940     0.12800
H2991       H  0.49709581  0.74685231  0.93819258     0.13300
H2992       H  0.03277090  0.72980541  0.52981447     0.15300
C2993       C  0.92167563  0.67761770  0.31952761    -0.04800
C2994       C  0.92506834  0.70782892  0.33446073    -0.04700
C2995       C  0.92178606  0.71104563  0.36663921    -0.22900
C2996       C  0.91435266  0.68422519  0.38473126     0.19400
C2997       C  0.90944581  0.65399934  0.37018167     0.16600
C2998       C  0.91251044  0.65099919  0.33772455    -0.17900
C2999       C  0.90142494  0.62735372  0.38840643    -0.19700
C3000       C  0.90035010  0.63021642  0.42076517    -0.12300
C3001       C  0.90730055  0.65980424  0.43565344     0.04400
C3002       C  0.91202168  0.68712857  0.41714705    -0.24400
H3003       H  0.92958063  0.72930744  0.32119909     0.09500
H3004       H  0.92501683  0.73456811  0.37737044     0.13100
H3005       H  0.90760733  0.62793827  0.32668627     0.13000
H3006       H  0.89661503  0.60411927  0.37766160     0.12800
H3007       H  0.89419075  0.60910912  0.43402672     0.13300
H3008       H  0.91529371  0.71055458  0.42806162     0.15300
C3009       C  0.91809859  0.66716552  0.18611977    -0.04800
C3010       C  0.90509748  0.63814724  0.17419134    -0.04700
C3011       C  0.90113707  0.63338087  0.14246778    -0.22900
C3012       C  0.90904494  0.65790472  0.12176777     0.19400
C3013       C  0.91922496  0.68818888  0.13340986     0.16600
C3014       C  0.92346610  0.69276221  0.16551571    -0.17900
C3015       C  0.92486798  0.71329965  0.11265302    -0.19700
C3016       C  0.92237098  0.70784960  0.08071518    -0.12300
C3017       C  0.91542587  0.67692484  0.06859395     0.04400
C3018       C  0.90702168  0.65250741  0.08963729    -0.24400
H3019       H  0.89830132  0.61871435  0.18948402     0.09500
H3020       H  0.89214887  0.61034786  0.13411589     0.13100
H3021       H  0.93057943  0.71620962  0.17433740     0.13000
H3022       H  0.93146144  0.73709289  0.12106596     0.12800
H3023       H  0.92624863  0.72790785  0.06539966     0.13300
H3024       H  0.89898449  0.62921360  0.08113378     0.15300
C3025       C  0.91446666  0.67103386  0.53346619     0.30500
C3026       C  0.91015990  0.66282519  0.97090689     0.30500
C3027       C  0.88191619  0.68243379  0.51960487    -0.05700
C3028       C  0.94159688  0.68785841  0.51360280    -0.06500
C3029       C  0.91796475  0.63578864  0.52152962    -0.06400
C3030       C  0.87976724  0.67853753  0.98750296    -0.05700
C3031       C  0.93935080  0.68341741  0.98184855    -0.06500
C3032       C  0.91579628  0.63154889  0.98890973    -0.06400
C3033       C  0.85809321  0.70205706  0.97798767    -0.31800
N3034       N  0.84653608  0.71916077  0.00308281     0.14700
C3035       C  0.86111259  0.70765370  0.52843908    -0.31800
H3036       H  0.85967960  0.71918350  0.55111117     0.16700
C3037       C  0.96619116  0.69846473  0.96804679    -0.30700
N3038       N  0.98433042  0.71292053  0.49033995     0.13500
C3039       C  0.96976084  0.70605089  0.51833531    -0.30700
C3040       C  0.93881246  0.60776343  0.98051157    -0.31000
N3041       N  0.95421130  0.59727234  0.00572296     0.14000
H3042       H  0.94805635  0.60280686  0.95708262     0.16600
C3043       C  0.94189189  0.61403627  0.53060338    -0.31000
H3044       H  0.95379678  0.61473731  0.55274361     0.16600
H3045       H  0.97853368  0.71430465  0.54050604     0.16600
H3046       H  0.85374809  0.70838874  0.95425846     0.16700
H3047       H  0.97214243  0.69875218  0.94349495     0.16600
C3048       C  0.92180316  0.67112670  0.72118688     0.30500
C3049       C  0.92302699  0.67498384  0.78415085     0.30500
C3050       C  0.93227718  0.63998499  0.73738558    -0.05700
C3051       C  0.94659200  0.69590678  0.73437301    -0.06500
C3052       C  0.88868624  0.68055906  0.73767259    -0.06400
C3053       C  0.93271775  0.64185919  0.76990433    -0.05700
C3054       C  0.94722415  0.69743115  0.76667531    -0.06500
C3055       C  0.88930376  0.68272504  0.77014083    -0.06400
C3056       C  0.95778397  0.62111121  0.77859700    -0.31800
N3057       N  0.97184305  0.60637851  0.75317904     0.14700
C3058       C  0.95708262  0.61826755  0.72806667    -0.31800
H3059       H  0.96647465  0.61458718  0.70449253     0.16700
C3060       C  0.97494023  0.71468360  0.77451059    -0.30700
N3061       N  0.99061228  0.72480857  0.74824113     0.13500
C3062       C  0.97382455  0.71326623  0.72351239    -0.30700
C3063       C  0.86710242  0.70699973  0.77915900    -0.31000
N3064       N  0.85321782  0.71936263  0.75386354     0.14000
H3065       H  0.86522570  0.71818057  0.80198117     0.16600
C3066       C  0.86625979  0.70360432  0.72864364    -0.31000
H3067       H  0.86367232  0.71163703  0.70513225     0.16600
H3068       H  0.98219529  0.71556876  0.69961680     0.16600
H3069       H  0.96790305  0.62005998  0.80149425     0.16700
H3070       H  0.98389332  0.71863858  0.79763468     0.16600
C3071       C  0.66107891  0.67473637  0.53065275     0.30500
C3072       C  0.65924853  0.67751959  0.96776069     0.30500
C3073       C  0.66990576  0.70744287  0.51692892    -0.05700
C3074       C  0.68510634  0.65135170  0.51254048    -0.06500
C3075       C  0.62741931  0.66640373  0.51660940    -0.06400
C3076       C  0.66919984  0.70895821  0.98445067    -0.05700
C3077       C  0.68402480  0.65280211  0.98030212    -0.06500
C3078       C  0.62637181  0.66747085  0.98426501    -0.06400
C3079       C  0.69378376  0.73061765  0.97578171    -0.31800
N3080       N  0.70861132  0.74245283  0.00126109     0.14700
C3081       C  0.69453944  0.72828243  0.52627640    -0.31800
H3082       H  0.70450447  0.72969574  0.54925931     0.16700
C3083       C  0.70583742  0.62978563  0.96811594    -0.30700
N3084       N  0.72042095  0.61456142  0.49187251     0.13500
C3085       C  0.70771770  0.62744116  0.51901978    -0.30700
C3086       C  0.60450996  0.64326855  0.97564708    -0.31000
N3087       N  0.59148203  0.62908017  0.00113920     0.14000
H3088       H  0.60186882  0.63371741  0.95237331     0.16600
C3089       C  0.60585952  0.64240287  0.52595389    -0.31000
H3090       H  0.60453789  0.63214099  0.54882234     0.16600
H3091       H  0.71388821  0.61940445  0.54182881     0.16600
H3092       H  0.70294665  0.73447492  0.95232847     0.16700
H3093       H  0.71081927  0.62457095  0.94379714     0.16600
C3094       C  0.67753380  0.68102955  0.78058477     0.30500
C3095       C  0.67947013  0.67860513  0.71737861     0.30500
C3096       C  0.68611233  0.71278183  0.76458004    -0.05700
C3097       C  0.70236008  0.65702085  0.76534907    -0.06500
C3098       C  0.64454339  0.67059673  0.76582193    -0.06400
C3099       C  0.68741941  0.71154510  0.73214688    -0.05700
C3100       C  0.70347631  0.65572557  0.73325720    -0.06500
C3101       C  0.64548633  0.66939947  0.73298847    -0.06400
C3102       C  0.71001850  0.73485808  0.72284607    -0.31800
N3103       N  0.72145583  0.75061328  0.74810543     0.14700
C3104       C  0.70726143  0.73711538  0.77352268    -0.31800
H3105       H  0.71517328  0.74173577  0.79690256     0.16700
C3106       C  0.72797340  0.63382087  0.72439562    -0.30700
N3107       N  0.74207623  0.62262801  0.75027010     0.13500
C3108       C  0.72597826  0.63595208  0.77536293    -0.30700
C3109       C  0.62424596  0.64460582  0.72463157    -0.31000
N3110       N  0.61016903  0.63138650  0.75023438     0.14000
H3111       H  0.62264471  0.63410618  0.70162619     0.16600
C3112       C  0.62306024  0.64627574  0.77519413    -0.31000
H3113       H  0.62053204  0.63712618  0.79843911     0.16600
H3114       H  0.73141211  0.63077824  0.79913935     0.16600
H3115       H  0.72055557  0.73727589  0.69964643     0.16700
H3116       H  0.73580643  0.62716803  0.70098579     0.16600
C3117       C  0.91857422  0.91883637  0.53492998     0.30500
C3118       C  0.92211971  0.91891558  0.97178414     0.30500
C3119       C  0.90961702  0.88688560  0.51883511    -0.05700
C3120       C  0.89564999  0.94331200  0.51946681    -0.06500
C3121       C  0.95292813  0.92764333  0.52069655    -0.06400
C3122       C  0.91115687  0.88691554  0.98626374    -0.05700
C3123       C  0.89728973  0.94356546  0.98714866    -0.06500
C3124       C  0.95466510  0.92741347  0.98813932    -0.06400
C3125       C  0.88639484  0.86605687  0.97674128    -0.31800
N3126       N  0.87095294  0.85286890  0.00178669     0.14700
C3127       C  0.88470923  0.86559731  0.52736234    -0.31800
H3128       H  0.87450260  0.86268559  0.55061682     0.16700
C3129       C  0.87705276  0.96876198  0.97837780    -0.30700
N3130       N  0.86300939  0.98310469  0.50423250     0.13500
C3131       C  0.87464754  0.96795109  0.52935926    -0.30700
C3132       C  0.97699509  0.95112850  0.97965604    -0.31000
N3133       N  0.98888667  0.96570557  0.00514584     0.14000
H3134       H  0.98031136  0.96037833  0.95649926     0.16600
C3135       C  0.97396823  0.95218906  0.53014618    -0.31000
H3136       H  0.97445228  0.96256088  0.55330818     0.16600
H3137       H  0.86854239  0.97464878  0.55317463     0.16600
H3138       H  0.87758252  0.86383970  0.95336949     0.16700
H3139       H  0.87385501  0.97725366  0.95517255     0.16600
C3140       C  0.92739305  0.92650015  0.78355167     0.30500
C3141       C  0.93603047  0.91884328  0.72091945     0.30500
C3142       C  0.92158523  0.89234697  0.77056932    -0.05700
C3143       C  0.90515026  0.94768781  0.76372892    -0.06500
C3144       C  0.96257950  0.93488258  0.77050906    -0.06400
C3145       C  0.92616734  0.88844311  0.73839937    -0.05700
C3146       C  0.90956228  0.94351253  0.73192004    -0.06500
C3147       C  0.96701926  0.93114481  0.73794269    -0.06400
C3148       C  0.90535796  0.86392186  0.72935747    -0.31800
N3149       N  0.88842090  0.85282276  0.75444748     0.14700
C3150       C  0.89782053  0.87012965  0.77952940    -0.31800
H3151       H  0.88474809  0.87000982  0.80184068     0.16700
C3152       C  0.89276568  0.96795603  0.71803375    -0.30700
N3153       N  0.87786317  0.98667049  0.74041025     0.13500
C3154       C  0.88619807  0.97525167  0.76837509    -0.30700
C3155       C  0.98902169  0.95509574  0.72884162    -0.31000
N3156       N  0.99896344  0.97205109  0.75394022     0.14000
H3157       H  0.99411556  0.96220134  0.70519640     0.16600
C3158       C  0.98254817  0.96041549  0.77915956    -0.31000
H3159       H  0.98164847  0.97234556  0.80165262     0.16600
H3160       H  0.87953504  0.98672127  0.79038937     0.16600
H3161       H  0.89935068  0.85795651  0.70569240     0.16700
H3162       H  0.89257258  0.97278802  0.69353461     0.16600
C3163       C  0.66073760  0.92294124  0.96835298     0.30500
C3164       C  0.65945199  0.92345544  0.53153143     0.30500
C3165       C  0.65598557  0.95629608  0.98443131    -0.05700
C3166       C  0.63334178  0.90231195  0.98371656    -0.06500
C3167       C  0.69265870  0.90975582  0.98331170    -0.06400
C3168       C  0.65505304  0.95625324  0.51691308    -0.05700
C3169       C  0.63280535  0.90249048  0.51614399    -0.06500
C3170       C  0.69192553  0.91075696  0.51593691    -0.06400
C3171       C  0.63428487  0.98112952  0.52680061    -0.31800
N3172       N  0.62311263  0.99663009  0.00192019     0.14700
C3173       C  0.63651602  0.98214666  0.97617835    -0.31800
H3174       H  0.62870419  0.98732218  0.95306114     0.16700
C3175       C  0.61963671  0.87336242  0.52505238    -0.30700
N3176       N  0.61100200  0.85594164  0.49973834     0.13500
C3177       C  0.62018817  0.87308413  0.97442765    -0.30700
C3178       C  0.71401446  0.88783694  0.52570729    -0.31000
N3179       N  0.72845721  0.87305069  0.00064784     0.14000
H3180       H  0.71678467  0.88013902  0.54930000     0.16600
C3181       C  0.71426344  0.88457291  0.97509071    -0.31000
H3182       H  0.71672900  0.87251101  0.95278549     0.16600
H3183       H  0.62030643  0.86388364  0.95083899     0.16600
H3184       H  0.62376554  0.98416927  0.55006221     0.16700
H3185       H  0.61852106  0.86480536  0.54851180     0.16600
C3186       C  0.68097357  0.92244016  0.77990515     0.30500
C3187       C  0.68377926  0.92672488  0.71659071     0.30500
C3188       C  0.71697258  0.92136149  0.76428388    -0.05700
C3189       C  0.66210112  0.89627306  0.76167429    -0.06500
C3190       C  0.66691842  0.95404427  0.76650048    -0.06400
C3191       C  0.71752904  0.92123671  0.73147364    -0.05700
C3192       C  0.66369480  0.89862314  0.72960901    -0.06500
C3193       C  0.66872442  0.95583624  0.73427750    -0.06400
C3194       C  0.74127699  0.89838048  0.72191835    -0.31800
N3195       N  0.75699907  0.88717074  0.74667784     0.14700
C3196       C  0.74439321  0.90295055  0.77188141    -0.31800
H3197       H  0.75378270  0.89930565  0.79467319     0.16700
C3198       C  0.64398846  0.87490525  0.71756462    -0.30700
N3199       N  0.62946576  0.85866698  0.74125883     0.13500
C3200       C  0.64057895  0.87122901  0.76839392    -0.30700
C3201       C  0.64859773  0.98088429  0.72574377    -0.31000
N3202       N  0.63472220  0.99494212  0.75159403     0.14000
H3203       H  0.64191925  0.98637675  0.70231732     0.16600
C3204       C  0.64616888  0.97929078  0.77661469    -0.31000
H3205       H  0.63783208  0.98473306  0.80009850     0.16600
H3206       H  0.63207550  0.86403201  0.79124178     0.16600
H3207       H  0.74268149  0.88681377  0.69923409     0.16700
H3208       H  0.63948791  0.87030113  0.69332671     0.16600
O3209       O  0.49820930  0.57205477  0.53043358    -0.74000
O3210       O  0.58028587  0.52506575  0.52859958    -0.74000
O3211       O  0.56362525  0.58813574  0.52801830    -0.74000
O3212       O  0.51507091  0.50883767  0.53055758    -0.74100
O3213       O  0.51573229  0.50743788  0.97892796    -0.74000
O3214       O  0.56346907  0.58684578  0.97640259    -0.74000
O3215       O  0.58070219  0.52387369  0.97695652    -0.74000
O3216       O  0.49809370  0.57033077  0.97882066    -0.74000
Ni3217     Ni  0.53930095  0.54864158  0.53124706     1.25400
Ni3218     Ni  0.53948167  0.54710694  0.97594188     1.25400
C3219       C  0.48455973  0.57890812  0.00497535     0.88200
C3220       C  0.59376844  0.51630827  0.00254338     0.88200
C3221       C  0.57189353  0.60032917  0.00183450     0.88200
C3222       C  0.50741920  0.49504805  0.00497044     0.88400
O3223       O  0.59345584  0.52640860  0.77780047    -0.74000
O3224       O  0.51413157  0.57860176  0.77834287    -0.74000
O3225       O  0.52702462  0.51435758  0.77886650    -0.74000
O3226       O  0.58069727  0.59091719  0.77698737    -0.74100
O3227       O  0.58118982  0.58949800  0.72539416    -0.74000
O3228       O  0.52814495  0.51257647  0.72726061    -0.74000
O3229       O  0.51463734  0.57689012  0.72674198    -0.74000
O3230       O  0.59447293  0.52514228  0.72619045    -0.74000
Ni3231     Ni  0.55382442  0.55268084  0.77979865     1.25400
Ni3232     Ni  0.55465039  0.55100652  0.72455862     1.25400
C3233       C  0.60670417  0.51661555  0.75192755     0.88200
C3234       C  0.50128175  0.58639826  0.75271733     0.88200
C3235       C  0.51881378  0.50075514  0.75333674     0.88200
C3236       C  0.58984909  0.60284818  0.75088966     0.88400
O3237       O  0.76021607  0.83550518  0.52712122    -0.74000
O3238       O  0.81642936  0.76099809  0.52817385    -0.74000
O3239       O  0.82736582  0.82528635  0.52751582    -0.74000
O3240       O  0.74978856  0.77141052  0.52735341    -0.74100
O3241       O  0.75192997  0.77022398  0.97570970    -0.74000
O3242       O  0.82968590  0.82367764  0.97589388    -0.74000
O3243       O  0.81846896  0.75932206  0.97651771    -0.74000
O3244       O  0.76259413  0.83414434  0.97546929    -0.74000
Ni3245     Ni  0.78843996  0.79840715  0.52939534     1.25400
Ni3246     Ni  0.79083198  0.79684675  0.97407861     1.25400
C3247       C  0.75140588  0.84656342  0.00111579     0.88200
C3248       C  0.82634797  0.74763129  0.00254952     0.88200
C3249       C  0.84151776  0.83316275  0.00170448     0.88200
C3250       C  0.73792455  0.76215243  0.00144681     0.88400
O3251       O  0.82535610  0.76331531  0.77834653    -0.74000
O3252       O  0.77946974  0.84434591  0.77429273    -0.74000
O3253       O  0.76084176  0.78106500  0.77480234    -0.74000
O3254       O  0.84350737  0.82622123  0.77844592    -0.74100
O3255       O  0.84812930  0.82441366  0.72687307    -0.74000
O3256       O  0.76522617  0.77886917  0.72324816    -0.74000
O3257       O  0.78375266  0.84230538  0.72272921    -0.74000
O3258       O  0.82975447  0.76167265  0.72676370    -0.74000
Ni3259     Ni  0.80203368  0.80381850  0.77830580     1.25400
Ni3260     Ni  0.80684471  0.80176700  0.72307669     1.25400
C3261       C  0.83515273  0.74917417  0.75302192     0.88200
C3262       C  0.77455703  0.85698171  0.74789748     0.88200
C3263       C  0.74998107  0.77143500  0.74864485     0.88200
C3264       C  0.85912585  0.83331041  0.75323358     0.88400
C3265       C  0.67867099  0.91781405  0.81543084    -0.04800
C3266       C  0.70091288  0.89685095  0.82975687    -0.04700
C3267       C  0.70544748  0.89841843  0.86155012    -0.22900
C3268       C  0.68234923  0.91513023  0.88058881     0.19400
C3269       C  0.65372556  0.92819310  0.86737577     0.16600
C3270       C  0.65239472  0.93048525  0.83474486    -0.17900
C3271       C  0.62682216  0.93751628  0.88706196    -0.19700
C3272       C  0.62880959  0.93394241  0.91923143    -0.12300
C3273       C  0.65884538  0.92433192  0.93281987     0.04400
C3274       C  0.68596729  0.91609771  0.91276772    -0.24400
H3275       H  0.71385091  0.87794929  0.81685827     0.09500
H3276       H  0.72513135  0.88434892  0.87142142     0.13100
H3277       H  0.63041035  0.94037666  0.82475243     0.13000
H3278       H  0.60390240  0.94636039  0.87761054     0.12800
H3279       H  0.60689862  0.93938067  0.93364932     0.13300
H3280       H  0.71000781  0.91039790  0.92146080     0.15300
C3281       C  0.65820996  0.92507073  0.56693122    -0.04800
C3282       C  0.62782772  0.92111421  0.58369428    -0.04700
C3283       C  0.62658856  0.92220676  0.61602073    -0.22900
C3284       C  0.65563326  0.92776072  0.63240384     0.19400
C3285       C  0.68594963  0.93350660  0.61600396     0.16600
C3286       C  0.68687616  0.93293810  0.58346915    -0.17900
C3287       C  0.71488025  0.93943793  0.63246819    -0.19700
C3288       C  0.71417566  0.93785372  0.66476356    -0.12300
C3289       C  0.68448049  0.93031162  0.68138712     0.04400
C3290       C  0.65489633  0.92732555  0.66488636    -0.24400
H3291       H  0.60474469  0.91736715  0.57183992     0.03900
H3292       H  0.60296174  0.91837012  0.62820254     0.13100
H3293       H  0.71008727  0.93801443  0.57104640     0.13000
H3294       H  0.73823382  0.94471925  0.62035066     0.12800
H3295       H  0.73702016  0.94270235  0.67659504     0.13300
H3296       H  0.63134734  0.92384137  0.67731592     0.15300
C3297       C  0.92158008  0.92883482  0.81883821    -0.04800
C3298       C  0.88983680  0.93690320  0.83187468    -0.04700
C3299       C  0.88369272  0.93719329  0.86389551    -0.22900
C3300       C  0.90849676  0.92752284  0.88386238     0.19400
C3301       C  0.93982099  0.91740335  0.87123913     0.16600
C3302       C  0.94623795  0.91825328  0.83895755    -0.17900
C3303       C  0.96379812  0.90562021  0.89107607    -0.19700
C3304       C  0.95717469  0.90486851  0.92303554    -0.12300
C3305       C  0.92695275  0.91713897  0.93631952     0.04400
C3306       C  0.90211380  0.92698081  0.91613112    -0.24400
H3307       H  0.86899599  0.94176957  0.81742650     0.09500
H3308       H  0.85913674  0.94406093  0.87296742     0.13100
H3309       H  0.97015275  0.91001160  0.82942419     0.13000
H3310       H  0.98768305  0.89687870  0.88189422     0.12800
H3311       H  0.97628576  0.89536230  0.93755947     0.13300
H3312       H  0.87755461  0.93340423  0.92521247     0.15300
C3313       C  0.93857960  0.91370896  0.68573153    -0.04800
C3314       C  0.96935294  0.90789016  0.67012893    -0.04700
C3315       C  0.97141376  0.90586688  0.63772155    -0.22900
C3316       C  0.94276307  0.90994274  0.62027550     0.19400
C3317       C  0.91143182  0.91347259  0.63568560     0.16600
C3318       C  0.90942783  0.91394861  0.66815885    -0.17900
C3319       C  0.88270205  0.91712931  0.61837935    -0.19700
C3320       C  0.88517858  0.91869358  0.58610883    -0.12300
C3321       C  0.91641947  0.91705633  0.57033821     0.04400
C3322       C  0.94498099  0.91101869  0.58776409    -0.24400
H3323       H  0.99194809  0.90523033  0.68292139     0.09500
H3324       H  0.99557850  0.90213516  0.62629598     0.13100
H3325       H  0.88513428  0.91585510  0.67975603     0.13000
H3326       H  0.85833406  0.91928821  0.62981764     0.12800
H3327       H  0.86248782  0.92114549  0.57342632     0.13300
H3328       H  0.96906082  0.90734899  0.57619713     0.15300
C3329       C  0.85505427  0.51229393  0.73518725    -0.04800
C3330       C  0.83410097  0.01101311  0.70973528    -0.04700
C3331       C  0.80872682  0.53339087  0.70668176    -0.22900
C3332       C  0.80377704  0.55766777  0.72923207     0.19400
C3333       C  0.82566251  0.56025898  0.75420276     0.16600
C3334       C  0.85139897  0.53775049  0.75682974    -0.17900
C3335       C  0.82066015  0.58457657  0.77673549    -0.19700
C3336       C  0.79335030  0.60528875  0.77522820    -0.12300
C3337       C  0.77078956  0.60205894  0.75108792     0.04400
C3338       C  0.77660689  0.57867021  0.72777372    -0.24400
H3339       H  0.83632232  0.99141698  0.69291652     0.09500
H3340       H  0.79223827  0.03134283  0.68735123     0.13100
H3341       H  0.86787715  0.53943506  0.77618130     0.13000
H3342       H  0.83745729  0.58718755  0.79580065     0.12800
H3343       H  0.78987962  0.62387955  0.79291910     0.13300
H3344       H  0.75931035  0.57604878  0.70912028     0.15300
C3345       C  0.83984062  0.50949426  0.50535568    -0.04800
C3346       C  0.83997989  0.03231046  0.53011088    -0.04700
C3347       C  0.81687774  0.55724074  0.53208693    -0.22900
C3348       C  0.79317331  0.56078289  0.50921022     0.19400
C3349       C  0.79296091  0.53873493  0.48391163     0.16600
C3350       C  0.81638920  0.51330865  0.98206285    -0.17900
C3351       C  0.76909225  0.54234831  0.96113262    -0.19700
C3352       C  0.74547542  0.56732745  0.96358685    -0.12300
C3353       C  0.74519726  0.58917680  0.48889341     0.04400
C3354       C  0.76947137  0.58582348  0.51146338    -0.24400
H3355       H  0.85796800  0.03021098  0.54813517     0.09500
H3356       H  0.81752787  0.07437848  0.55157456     0.13100
H3357       H  0.81582865  0.49605809  0.96297174     0.13000
H3358       H  0.76848142  0.52568611  0.94156482     0.12800
H3359       H  0.72699406  0.56916802  0.94596075     0.13300
H3360       H  0.77000289  0.60280388  0.53075803     0.15300
C3361       C  0.65719482  0.68073417  0.93259676    -0.04800
C3362       C  0.62616362  0.68526797  0.91863652    -0.04700
C3363       C  0.62381541  0.68633812  0.88655113    -0.22900
C3364       C  0.65258261  0.68460361  0.86752801     0.19400
C3365       C  0.68413249  0.68314462  0.88114069     0.16600
C3366       C  0.68628374  0.68123234  0.91350425    -0.17900
C3367       C  0.71295524  0.68396279  0.86211795    -0.19700
C3368       C  0.71042918  0.68481555  0.82998694    -0.12300
C3369       C  0.67914301  0.68319686  0.81592023     0.04400
C3370       C  0.65024265  0.68470170  0.83515385    -0.24400
H3371       H  0.60333629  0.68810994  0.93239287     0.09500
H3372       H  0.59944569  0.68870179  0.87664227     0.13100
H3373       H  0.71053430  0.67997728  0.92379433     0.13000
H3374       H  0.73744190  0.68395632  0.87204437     0.12800
H3375       H  0.73322420  0.68608661  0.81599270     0.13300
H3376       H  0.62591498  0.68643727  0.82515366     0.15300
C3377       C  0.65980045  0.67552963  0.56617080    -0.04800
C3378       C  0.62953990  0.68357104  0.58219748    -0.04700
C3379       C  0.62723773  0.68468619  0.61438434    -0.22900
C3380       C  0.65563481  0.68013013  0.63165974     0.19400
C3381       C  0.68684716  0.67504983  0.61620912     0.16600
C3382       C  0.68876059  0.67242365  0.58358008    -0.17900
C3383       C  0.71561738  0.67378645  0.63372167    -0.19700
C3384       C  0.71321332  0.67654047  0.66606406    -0.12300
C3385       C  0.68189390  0.67824983  0.68188224     0.04400
C3386       C  0.65329983  0.68146505  0.66415210    -0.24400
H3387       H  0.60720693  0.68919831  0.56991484     0.09500
H3388       H  0.60328662  0.68983603  0.62574544     0.13100
H3389       H  0.71275951  0.66888040  0.57182349     0.13000
H3390       H  0.74000823  0.67121573  0.62242658     0.12800
H3391       H  0.73604925  0.67709873  0.67872269     0.13300
H3392       H  0.62918247  0.68565929  0.67550707     0.15300
C3393       C  0.60307272  0.83567356  0.73770095    -0.04800
C3394       C  0.57840621  0.84097364  0.71586323    -0.04700
C3395       C  0.55216558  0.81937417  0.71245083    -0.22900
C3396       C  0.55016347  0.79187343  0.73069997     0.19400
C3397       C  0.57524155  0.78590251  0.75230468     0.16600
C3398       C  0.60145819  0.80794342  0.75578124    -0.17900
C3399       C  0.57328512  0.75826671  0.77040416    -0.19700
C3400       C  0.54604039  0.73759569  0.76816652    -0.12300
C3401       C  0.52046171  0.74389599  0.74752470     0.04400
C3402       C  0.52308507  0.77069584  0.72828547    -0.24400
H3403       H  0.57907034  0.86234151  0.70185090     0.09500
H3404       H  0.53323280  0.82438964  0.69580412     0.13100
H3405       H  0.62060701  0.80359863  0.77241167     0.13000
H3406       H  0.59243845  0.75300461  0.78678353     0.12800
H3407       H  0.54461016  0.71681672  0.78291897     0.13300
H3408       H  0.00328989  0.77578826  0.71251543     0.15300
C3409       C  0.59540903  0.82459224  0.50003781    -0.04800
C3410       C  0.59623971  0.80530662  0.02654940    -0.04700
C3411       C  0.57686341  0.77754892  0.02886560    -0.22900
C3412       C  0.55620832  0.76842646  0.00474217     0.19400
C3413       C  0.55696105  0.78618942  0.47713031     0.16600
C3414       C  0.57666618  0.81395559  0.47485675    -0.17900
C3415       C  0.53656510  0.77692063  0.45287918    -0.19700
C3416       C  0.51387577  0.75185936  0.45674663    -0.12300
C3417       C  0.51134213  0.73519845  0.48485602     0.04400
C3418       C  0.53370869  0.74284603  0.00831869    -0.24400
H3419       H  0.61129633  0.81190721  0.04595358     0.09500
H3420       H  0.57717400  0.76386252  0.04998398     0.13100
H3421       H  0.57568359  0.82829347  0.45421063     0.13000
H3422       H  0.53702500  0.79003481  0.43139229     0.12800
H3423       H  0.49710506  0.74685153  0.43818644     0.13300
H3424       H  0.03277834  0.72979938  0.02980725     0.15300
C3425       C  0.92167644  0.67761445  0.81952848    -0.04800
C3426       C  0.92506479  0.70782561  0.83446264    -0.04700
C3427       C  0.92178257  0.71104071  0.86664118    -0.22900
C3428       C  0.91435383  0.68421851  0.88473224     0.19400
C3429       C  0.90945179  0.65399230  0.87018172     0.16600
C3430       C  0.91251616  0.65099377  0.83772452    -0.17900
C3431       C  0.90143551  0.62734489  0.88840566    -0.19700
C3432       C  0.90035986  0.63020671  0.92076445    -0.12300
C3433       C  0.90730544  0.65979535  0.93565358     0.04400
C3434       C  0.91202262  0.68712066  0.91714796    -0.24400
H3435       H  0.92957394  0.72930518  0.82120171     0.09500
H3436       H  0.92500972  0.73456331  0.87737326     0.13100
H3437       H  0.90761620  0.62793250  0.82668561     0.13000
H3438       H  0.89662936  0.60410992  0.87766009     0.12800
H3439       H  0.89420314  0.60909824  0.93402524     0.13300
H3440       H  0.91529138  0.71054690  0.92806321     0.15300
C3441       C  0.91810251  0.66716868  0.68611984    -0.04800
C3442       C  0.90510022  0.63815110  0.67419097    -0.04700
C3443       C  0.90113705  0.63338625  0.64246761    -0.22900
C3444       C  0.90904407  0.65791063  0.62176800     0.19400
C3445       C  0.91922528  0.68819424  0.63341048     0.16600
C3446       C  0.92346865  0.69276630  0.66551635    -0.17900
C3447       C  0.92486760  0.71330546  0.61265386    -0.19700
C3448       C  0.92236974  0.70785595  0.58071587    -0.12300
C3449       C  0.91542372  0.67693148  0.56859425     0.04400
C3450       C  0.90701945  0.65251402  0.58963745    -0.24400
H3451       H  0.89830480  0.61871765  0.68948320     0.09500
H3452       H  0.89214774  0.61035374  0.63411549     0.13100
H3453       H  0.93058254  0.71621335  0.67433846     0.13000
H3454       H  0.93146171  0.73709843  0.62106700     0.12800
H3455       H  0.92624767  0.72791431  0.56540052     0.13300
H3456       H  0.89898165  0.62922052  0.58113373     0.15300
loop_ 
_geom_bond_atom_site_label_1 
_geom_bond_atom_site_label_2 
_geom_bond_distance 
_geom_bond_site_symmetry_2 
_ccdc_geom_bond_type 
C1            C3   1.529       .  S
C1            C5   1.547       .  S
C1            C4   1.543       .  S
C1          C425   1.535       .  S
C2            C6   1.531       .  S
C2            C8   1.544       .  S
C2            C7   1.534       .  S
C2          C409   1.534       .  S
C3           C11   1.377       .  A
C3          C438   1.399   1_554  A
C4           C15   1.381       .  A
C4          C439   1.387   1_554  A
C5           C19   1.384       .  A
C5          C440   1.423   1_554  A
C6            C9   1.380       .  A
C6          C435   1.399       .  A
C7           C13   1.373       .  A
C7          C436   1.387       .  A
C8           C16   1.384       .  A
C8          C437   1.423       .  A
C9           N10   1.353       .  A
C9           H22   1.082       .  S
N10         C443   1.351       .  A
N10         C224   1.430       .  S
C11         N442   1.351       .  A
C11          H12   1.082       .  S
C13         N446   1.358       .  A
C13          H23   1.080       .  S
N14          C15   1.363   1_556  A
N14         C445   1.358       .  A
N14        C2121   1.445       .  S
C15          H21   1.081       .  S
C16          N17   1.346       .  A
C16          H18   1.083       .  S
N17         C451   1.349       .  A
N17        C1923   1.432       .  S
C19         N449   1.349       .  A
C19          H20   1.082       .  S
C24          C26   1.543       .  S
C24          C28   1.533       .  S
C24          C27   1.548       .  S
C24         C417   1.533       .  S
C25          C29   1.540       .  S
C25          C31   1.534       .  S
C25          C30   1.540       .  S
C25         C401   1.530       .  S
C26          C34   1.385       .  A
C26          C29   1.407       .  A
C27          C38   1.386       .  A
C27          C30   1.397       .  A
C28          C42   1.379       .  A
C28          C31   1.405       .  A
C29          C32   1.386       .  A
C30          C36   1.374       .  A
C31          C39   1.384       .  A
C32          N33   1.354       .  A
C32          H45   1.082       .  S
N33          C34   1.352       .  A
N33        C1938   1.439       .  S
C34          H35   1.083       .  S
C36          N37   1.355       .  A
C36          H46   1.082       .  S
N37          C38   1.361       .  A
N37        C2105   1.439       .  S
C38          H44   1.082       .  S
C39          N40   1.350       .  A
C39          H41   1.083       .  S
N40          C42   1.351       .  A
N40         C237   1.433       .  S
C42          H43   1.083       .  S
C47          C49   1.530       .  S
C47          C51   1.536       .  S
C47          C50   1.549       .  S
C47         C353   1.534       .  S
C48          C52   1.540       .  S
C48          C54   1.542       .  S
C48          C53   1.541       .  S
C48         C337   1.532       .  S
C49          C57   1.382       .  A
C49         C484   1.407   1_554  A
C50          C61   1.379       .  A
C50         C485   1.397   1_554  A
C51          C65   1.380       .  A
C51         C486   1.401   1_554  A
C52          C55   1.385       .  A
C52         C481   1.407       .  A
C53          C59   1.378       .  A
C53         C482   1.397       .  A
C54          C62   1.390       .  A
C54         C483   1.401       .  A
C55          N56   1.353       .  A
C55          H68   1.082       .  S
N56         C489   1.350       .  A
N56         C226   1.436       .  S
C57         N488   1.350       .  A
C57          H58   1.082       .  S
C59         N492   1.361       .  A
C59          H69   1.081       .  S
N60          C61   1.364   1_556  A
N60         C491   1.361       .  A
N60         C329   1.446       .  S
C61          H67   1.081       .  S
C62          N63   1.350       .  A
C62          H64   1.083       .  S
N63         C497   1.345       .  A
N63         C197   1.432       .  S
C65         N495   1.345       .  A
C65          H66   1.083       .  S
C70          C72   1.535       .  S
C70          C74   1.547       .  S
C70          C73   1.531       .  S
C70         C345   1.531       .  S
C71          C75   1.538       .  S
C71          C77   1.554       .  S
C71          C76   1.535       .  S
C71         C361   1.533       .  S
C72          C80   1.380       .  A
C72          C75   1.400       .  A
C73          C84   1.371       .  A
C73          C76   1.386       .  A
C74          C88   1.388       .  A
C74          C77   1.418       .  A
C75          C78   1.385       .  A
C76          C82   1.376       .  A
C77          C85   1.389       .  A
C78          N79   1.356       .  A
C78          H91   1.082       .  S
N79          C80   1.353       .  A
N79         C239   1.438       .  S
C80          H81   1.082       .  S
C82          N83   1.357       .  A
C82          H92   1.080       .  S
N83          C84   1.353       .  A
N83         C313   1.432       .  S
C84          H90   1.082       .  S
C85          N86   1.353       .  A
C85          H87   1.082       .  S
N86          C88   1.351       .  A
N86         C212   1.442       .  S
C88          H89   1.082       .  S
C93          C95   1.536       .  S
C93          C97   1.540       .  S
C93          C96   1.542       .  S
C93         C297   1.533       .  S
C94          C98   1.539       .  S
C94         C100   1.543       .  S
C94          C99   1.550       .  S
C94         C281   1.539       .  S
C95         C103   1.383       .  A
C95         C530   1.407   1_554  A
C96         C107   1.375       .  A
C96         C531   1.396   1_554  A
C97         C111   1.390       .  A
C97         C532   1.406   1_554  A
C98         C101   1.388       .  A
C98         C527   1.407       .  A
C99         C105   1.386       .  A
C99         C528   1.396       .  A
C100        C108   1.381       .  A
C100        C529   1.406       .  A
C101        N102   1.355       .  A
C101        H114   1.083       .  S
N102        C535   1.350       .  A
N102        C225   1.440       .  S
C103        N534   1.350       .  A
C103        H104   1.082       .  S
C105        N538   1.361       .  A
C105        H115   1.080       .  S
N106        C107   1.358       .  A
N106        C537   1.361   1_554  A
N106       C1185   1.445       .  S
C107        H113   1.081       .  S
C108        N109   1.348       .  A
C108        H110   1.083       .  S
N109        C543   1.351       .  A
N109       C2790   1.435       .  S
C111        N541   1.351       .  A
C111        H112   1.083       .  S
C116        C118   1.537       .  S
C116        C120   1.547       .  S
C116        C119   1.539       .  S
C116        C273   1.537       .  S
C117        C121   1.530       .  S
C117        C123   1.548       .  S
C117        C122   1.530       .  S
C117        C289   1.532       .  S
C118        C126   1.381       .  A
C118        C121   1.403       .  A
C119        C130   1.379       .  A
C119        C122   1.388       .  A
C120        C134   1.385       .  A
C120        C123   1.418       .  A
C121        C124   1.379       .  A
C122        C128   1.372       .  A
C123        C131   1.387       .  A
C124        N125   1.351       .  A
C124        H137   1.082       .  S
N125        C126   1.354       .  A
N125        C240   1.432       .  S
C126        H127   1.083       .  S
C128        N129   1.352       .  A
C128        H138   1.081       .  S
N129        C130   1.356       .  A
N129       C1169   1.433       .  S
C130        H136   1.081       .  S
C131        N132   1.354       .  A
C131        H133   1.082       .  S
N132        C134   1.353       .  A
N132       C2803   1.441       .  S
C134        H135   1.082       .  S
C139        C141   1.546       .  S
C139        C143   1.553       .  S
C139        C142   1.539       .  S
C139        C249   1.541       .  S
C140        C144   1.523       .  S
C140        C146   1.534       .  S
C140        C145   1.541       .  S
C140        C257   1.529       .  S
C141        C149   1.382       .  A
C141        C576   1.402       .  A
C142        C153   1.384       .  A
C142        C577   1.401       .  A
C143        C157   1.389       .  A
C143        C578   1.409       .  A
C144        C147   1.377       .  A
C144        C573   1.402   1_554  A
C145        C151   1.379       .  A
C145        C574   1.401   1_554  A
C146        C154   1.377       .  A
C146        C575   1.409   1_554  A
C147        N580   1.350       .  A
C147        H160   1.083       .  S
N148        C149   1.350       .  A
N148        C579   1.350       .  A
N148       C1060   1.430       .  S
C149        H150   1.081       .  S
C151        N152   1.355   1_554  A
C151        H161   1.080       .  S
N152        C585   1.358       .  A
N152        C385   1.447       .  S
C153        N584   1.358       .  A
C153        H159   1.082       .  S
C154        N587   1.348       .  A
C154        H156   1.082       .  S
N155        C157   1.351       .  A
N155        C586   1.348       .  A
N155        C223   1.431       .  S
C157        H158   1.079       .  S
C162        C164   1.574       .  S
C162        C166   1.553       .  S
C162        C165   1.545       .  S
C162        C241   1.550       .  S
C163        C167   1.534       .  S
C163        C169   1.529       .  S
C163        C168   1.527       .  S
C163        C265   1.530       .  S
C164        C172   1.387       .  A
C164        C167   1.417       .  A
C165        C176   1.384       .  A
C165        C168   1.390       .  A
C166        C180   1.390       .  A
C166        C169   1.394       .  A
C167        C170   1.389       .  A
C168        C174   1.371       .  A
C169        C177   1.375       .  A
C170        N171   1.347       .  A
C170        H183   1.083       .  S
N171        C172   1.345       .  A
N171        C238   1.437       .  S
C172        H173   1.078       .  S
C174        N175   1.354       .  A
C174        H184   1.082       .  S
N175        C176   1.363       .  A
N175        C369   1.439       .  S
C176        H182   1.082       .  S
C177        N178   1.354       .  A
C177        H179   1.083       .  S
N178        C180   1.362       .  A
N178       C1073   1.440       .  S
C180        H181   1.078       .  S
O185       Ni193   1.910   1_655  S
O185        C627   1.280       .  A
O186       Ni193   1.907       .  S
O186        C628   1.280       .  A
O187       Ni193   1.917       .  S
O187        C629   1.283       .  A
O188       Ni193   1.921       .  S
O188        C630   1.282   1_545  A
O189       Ni194   1.911       .  S
O189        C198   1.281   1_545  A
O190       Ni194   1.914       .  S
O190        C197   1.280       .  A
O191       Ni194   1.912       .  S
O191        C196   1.281       .  A
O192       Ni194   1.915   1_655  S
O192        C195   1.282       .  A
Ni193      Ni626   2.389   1_554  S
Ni194      Ni625   2.389       .  S
C195       N1745   1.432       .  S
C195        O617   1.280       .  A
C196       N1012   1.430   1_545  S
C196        O618   1.280       .  A
C197        O619   1.283       .  A
C198       N2701   1.435   1_455  S
C198        O620   1.282   1_565  A
O199       Ni207   1.922       .  S
O199        C209   1.281       .  A
O200       Ni207   1.920       .  S
O200        C210   1.281       .  A
O201       Ni207   1.925       .  S
O201        C211   1.283       .  A
O202       Ni207   1.926       .  S
O202        C212   1.284       .  A
O203       Ni208   1.925       .  S
O203        C212   1.282       .  A
O204       Ni208   1.925       .  S
O204        C211   1.283       .  A
O205       Ni208   1.926       .  S
O205        C210   1.283       .  A
O206       Ni208   1.924       .  S
O206        C209   1.284       .  A
Ni207      Ni208   2.386       .  S
C209       N1042   1.440   1_545  S
C210       N1761   1.439   1_455  S
C211       N2724   1.441   1_445  S
O213       Ni221   1.912       .  S
O213        C655   1.280       .  A
O214       Ni221   1.910       .  S
O214        C656   1.280       .  A
O215       Ni221   1.924       .  S
O215        C657   1.284       .  A
O216       Ni221   1.921       .  S
O216        C658   1.283       .  A
O217       Ni222   1.916       .  S
O217        C226   1.281       .  A
O218       Ni222   1.923       .  S
O218        C225   1.282       .  A
O219       Ni222   1.914       .  S
O219        C224   1.281       .  A
O220       Ni222   1.913       .  S
O220        C223   1.281       .  A
Ni221      Ni654   2.388   1_554  S
Ni222      Ni653   2.388       .  S
C223        O645   1.280       .  A
C224        O646   1.280       .  A
C225        O647   1.284       .  A
C226        O648   1.283       .  A
O227       Ni235   1.920       .  S
O227        C237   1.282       .  A
O228       Ni235   1.919       .  S
O228        C238   1.284       .  A
O229       Ni235   1.916       .  S
O229        C239   1.282       .  A
O230       Ni235   1.910       .  S
O230        C240   1.280       .  A
O231       Ni236   1.918       .  S
O231        C240   1.283       .  A
O232       Ni236   1.924       .  S
O232        C239   1.283       .  A
O233       Ni236   1.917       .  S
O233        C238   1.280       .  A
O234       Ni236   1.909       .  S
O234        C237   1.280       .  A
Ni235      Ni236   2.388       .  S
C241        C242   1.407       .  A
C241        C246   1.417       .  A
C242        C243   1.392       .  A
C242        H251   1.076       .  S
C243        C244   1.394       .  A
C243        H252   1.082       .  S
C244        C250   1.402       .  A
C244        C245   1.408       .  A
C245        C247   1.402       .  A
C245        C246   1.417       .  A
C246        H253   1.076       .  S
C247        C248   1.405       .  A
C247        H254   1.082       .  S
C248        C249   1.415       .  A
C248        H255   1.082       .  S
C249        C250   1.406       .  A
C250        H256   1.072       .  S
C257        C258   1.410       .  A
C257        C262   1.409       .  A
C258        C259   1.396       .  A
C258        H267   1.082       .  S
C259        C260   1.400       .  A
C259        H268   1.083       .  S
C260        C266   1.403       .  A
C260        C261   1.412       .  A
C261        C263   1.400       .  A
C261        C262   1.405       .  A
C262        H269   1.084       .  S
C263        C264   1.398       .  A
C263        H270   1.084       .  S
C264        C265   1.411       .  A
C264        H271   1.081       .  S
C265        C266   1.408       .  A
C266        H272   1.084       .  S
C273        C274   1.412       .  A
C273        C278   1.410       .  A
C274        C275   1.397       .  A
C274        H283   1.079       .  S
C275        C276   1.398       .  A
C275        H284   1.083       .  S
C276        C282   1.410       .  A
C276        C277   1.413       .  A
C277        C279   1.400       .  A
C277        C278   1.412       .  A
C278        H285   1.083       .  S
C279        C280   1.399       .  A
C279        H286   1.084       .  S
C280        C281   1.413       .  A
C280        H287   1.083       .  S
C281        C282   1.408       .  A
C282        H288   1.079       .  S
C289        C290   1.406       .  A
C289        C294   1.413       .  A
C290        C291   1.401       .  A
C290        H299   1.082       .  S
C291        C292   1.405       .  A
C291        H300   1.083       .  S
C292        C298   1.406       .  A
C292        C293   1.409       .  A
C293        C295   1.402       .  A
C293        C294   1.403       .  A
C294        H301   1.083       .  S
C295        C296   1.397       .  A
C295        H302   1.084       .  S
C296        C297   1.408       .  A
C296        H303   1.082       .  S
C297        C298   1.414       .  A
C298        H304   1.082       .  S
C305        C310   1.403       .  A
C305       C1170   1.405       .  A
C305        N993   1.433   1_545  S
C306       C1169   1.405       .  A
C306       C1171   1.391       .  A
C306        H315   1.083       .  S
C307        C308   1.398       .  A
C307       C1170   1.391       .  A
C307       H1180   1.083       .  S
C308        C314   1.396       .  A
C308        C309   1.415       .  A
C309        C311   1.399       .  A
C309        C310   1.397       .  A
C310        H317   1.083       .  S
C311        C312   1.393       .  A
C311        H318   1.084       .  S
C312        C313   1.407       .  A
C312        H319   1.082       .  S
C313        C314   1.400       .  A
C314        H320   1.084       .  S
H316       C1171   1.083       .  S
C321       C1186   1.407       .  A
C321        C758   1.409   1_554  A
C321        N970   1.445   1_545  S
C322       C1185   1.406       .  A
C322       C1187   1.397       .  A
C322        H331   1.082       .  S
C323        C324   1.401       .  A
C323       C1186   1.397       .  A
C323       H1196   1.083       .  S
C324        C330   1.405       .  A
C324        C325   1.413   1_554  A
C325        C759   1.404       .  A
C325        C758   1.409       .  A
C326        C753   1.409       .  A
C326        C757   1.409       .  A
C326        H333   1.083   1_545  S
C327        C328   1.401       .  A
C327        C757   1.404       .  A
C327        H334   1.084       .  S
C328        C761   1.408       .  A
C328        H335   1.082       .  S
C329        C330   1.407   1_556  A
C329        C760   1.408       .  A
C330        H336   1.083       .  S
H332       C1187   1.083       .  S
C337        C338   1.413       .  A
C337        C342   1.408       .  A
C338        C339   1.394       .  A
C338        H347   1.081       .  S
C339        C340   1.397       .  A
C339        H348   1.084       .  S
C340        C346   1.405       .  A
C340        C341   1.413       .  A
C341        C343   1.398       .  A
C341        C342   1.407       .  A
C342        H349   1.083       .  S
C343        C344   1.396       .  A
C343        H350   1.084       .  S
C344        C345   1.412       .  A
C344        H351   1.082       .  S
C345        C346   1.406       .  A
C346        H352   1.082       .  S
C353        C354   1.414       .  A
C353        C358   1.410       .  A
C354        C355   1.391       .  A
C354        H363   1.082       .  S
C355        C356   1.395       .  A
C355        H364   1.084       .  S
C356        C362   1.404       .  A
C356        C357   1.413       .  A
C357        C359   1.400       .  A
C357        C358   1.412       .  A
C358        H365   1.082       .  S
C359        C360   1.400       .  A
C359        H366   1.083       .  S
C360        C361   1.412       .  A
C360        H367   1.081       .  S
C361        C362   1.406       .  A
C362        H368   1.083       .  S
C369        C370   1.407       .  A
C369        C374   1.404       .  A
C370        C371   1.396       .  A
C370        H379   1.083       .  S
C371        C372   1.400       .  A
C371        H380   1.084       .  S
C372        C378   1.406       .  A
C372        C373   1.417       .  A
C373        C375   1.401       .  A
C373        C374   1.407       .  A
C374        H381   1.084       .  S
C375        C376   1.398       .  A
C375        H382   1.084       .  S
C376        C377   1.406       .  A
C376        H383   1.082       .  S
C377        C378   1.403       .  A
C377       N1765   1.439   1_455  S
C378       H2112   1.084       .  S
H384       C2106   1.084       .  S
C385        C390   1.407       .  A
C385        C818   1.410   1_556  A
C386        C387   1.397       .  A
C386        C817   1.410       .  A
C386        H395   1.080       .  S
C387        C388   1.399       .  A
C387        H396   1.084       .  S
C388        C394   1.405       .  A
C388        C821   1.413       .  A
C389        C391   1.399       .  A
C389        C390   1.404       .  A
C389        C820   1.413   1_556  A
C390        H397   1.083       .  S
C391        C392   1.395       .  A
C391        H398   1.084       .  S
C392        C393   1.410       .  A
C392        H399   1.080   1_455  S
C393        C826   1.407   1_556  A
C393       N1742   1.445   1_455  S
C394        C825   1.407       .  A
C394       H2128   1.083       .  S
H400       C2122   1.083       .  S
C401        C402   1.409       .  A
C401        C406   1.412       .  A
C402        C403   1.396       .  A
C402        H411   1.082       .  S
C403        C404   1.400       .  A
C403        H412   1.084       .  S
C404        C410   1.404       .  A
C404        C405   1.411       .  A
C405        C407   1.403       .  A
C405        C406   1.407       .  A
C406        H413   1.084       .  S
C407        C408   1.400       .  A
C407        H414   1.084       .  S
C408        C409   1.409       .  A
C408        H415   1.081       .  S
C409        C410   1.410       .  A
C410        H416   1.084       .  S
C417        C418   1.411       .  A
C417        C422   1.411       .  A
C418        C419   1.396       .  A
C418        H427   1.083       .  S
C419        C420   1.399       .  A
C419        H428   1.083       .  S
C420        C426   1.407       .  A
C420        C421   1.413       .  A
C421        C423   1.402       .  A
C421        C422   1.412       .  A
C422        H429   1.082       .  S
C423        C424   1.401       .  A
C423        H430   1.083       .  S
C424        C425   1.410       .  A
C424        H431   1.082       .  S
C425        C426   1.409       .  A
C426        H432   1.083       .  S
C433        C435   1.529       .  S
C433        C437   1.547       .  S
C433        C436   1.543       .  S
C433        C857   1.535       .  S
C434        C438   1.531       .  S
C434        C440   1.544       .  S
C434        C439   1.534       .  S
C434        C841   1.534       .  S
C435        C443   1.377       .  A
C436        C447   1.381       .  A
C437        C451   1.384       .  A
C438        C441   1.380       .  A
C439        C445   1.373       .  A
C440        C448   1.384       .  A
C441        N442   1.353   1_556  A
C441        H454   1.082       .  S
N442        C656   1.430       .  S
C443        H444   1.082       .  S
C445        H455   1.080       .  S
N446        C447   1.363       .  A
N446       C2553   1.445       .  S
C447        H453   1.081       .  S
C448        N449   1.346   1_556  A
C448        H450   1.083       .  S
N449       C2355   1.432       .  S
C451        H452   1.082       .  S
C456        C458   1.543       .  S
C456        C460   1.533       .  S
C456        C459   1.548       .  S
C456        C849   1.533       .  S
C457        C461   1.540       .  S
C457        C463   1.534       .  S
C457        C462   1.540       .  S
C457        C833   1.530       .  S
C458        C466   1.385       .  A
C458        C461   1.407       .  A
C459        C470   1.386       .  A
C459        C462   1.397       .  A
C460        C474   1.379       .  A
C460        C463   1.405       .  A
C461        C464   1.386       .  A
C462        C468   1.374       .  A
C463        C471   1.384       .  A
C464        N465   1.354       .  A
C464        H477   1.082       .  S
N465        C466   1.352       .  A
N465       C2370   1.439       .  S
C466        H467   1.083       .  S
C468        N469   1.355       .  A
C468        H478   1.082       .  S
N469        C470   1.361       .  A
N469       C2537   1.439       .  S
C470        H476   1.082       .  S
C471        N472   1.350       .  A
C471        H473   1.083       .  S
N472        C474   1.351       .  A
N472        C669   1.433       .  S
C474        H475   1.083       .  S
C479        C481   1.530       .  S
C479        C483   1.536       .  S
C479        C482   1.549       .  S
C479        C785   1.534       .  S
C480        C484   1.540       .  S
C480        C486   1.542       .  S
C480        C485   1.541       .  S
C480        C769   1.532       .  S
C481        C489   1.382       .  A
C482        C493   1.379       .  A
C483        C497   1.380       .  A
C484        C487   1.385       .  A
C485        C491   1.378       .  A
C486        C494   1.390       .  A
C487        N488   1.353   1_556  A
C487        H500   1.082       .  S
N488        C658   1.436       .  S
C489        H490   1.082       .  S
C491        H501   1.081       .  S
N492        C493   1.363       .  A
N492        C761   1.446       .  S
C493        H499   1.081       .  S
C494        N495   1.350   1_556  A
C494        H496   1.083       .  S
N495        C629   1.432       .  S
C497        H498   1.083       .  S
C502        C504   1.535       .  S
C502        C506   1.547       .  S
C502        C505   1.531       .  S
C502        C777   1.531       .  S
C503        C507   1.538       .  S
C503        C509   1.554       .  S
C503        C508   1.535       .  S
C503        C793   1.533       .  S
C504        C512   1.380       .  A
C504        C507   1.400       .  A
C505        C516   1.371       .  A
C505        C508   1.386       .  A
C506        C520   1.388       .  A
C506        C509   1.418       .  A
C507        C510   1.385       .  A
C508        C514   1.376       .  A
C509        C517   1.389       .  A
C510        N511   1.356       .  A
C510        H523   1.082       .  S
N511        C512   1.353       .  A
N511        C671   1.438       .  S
C512        H513   1.082       .  S
C514        N515   1.357       .  A
C514        H524   1.080       .  S
N515        C516   1.353       .  A
N515        C745   1.432       .  S
C516        H522   1.082       .  S
C517        N518   1.353       .  A
C517        H519   1.082       .  S
N518        C520   1.351       .  A
N518        C644   1.442       .  S
C520        H521   1.082       .  S
C525        C527   1.536       .  S
C525        C529   1.540       .  S
C525        C528   1.542       .  S
C525        C729   1.533       .  S
C526        C530   1.539       .  S
C526        C532   1.543       .  S
C526        C531   1.550       .  S
C526        C713   1.539       .  S
C527        C535   1.383       .  A
C528        C539   1.375       .  A
C529        C543   1.390       .  A
C530        C533   1.388       .  A
C531        C537   1.386       .  A
C532        C540   1.381       .  A
C533        N534   1.356   1_556  A
C533        H546   1.083       .  S
N534        C657   1.440       .  S
C535        H536   1.082       .  S
C537        H547   1.080       .  S
N538        C539   1.358       .  A
N538       C1617   1.445       .  S
C539        H545   1.081       .  S
C540        N541   1.348   1_556  A
C540        H542   1.083       .  S
N541       C3222   1.435       .  S
C543        H544   1.083       .  S
C548        C550   1.537       .  S
C548        C552   1.547       .  S
C548        C551   1.539       .  S
C548        C705   1.537       .  S
C549        C553   1.530       .  S
C549        C555   1.548       .  S
C549        C554   1.530       .  S
C549        C721   1.532       .  S
C550        C558   1.381       .  A
C550        C553   1.403       .  A
C551        C562   1.378       .  A
C551        C554   1.388       .  A
C552        C566   1.385       .  A
C552        C555   1.418       .  A
C553        C556   1.379       .  A
C554        C560   1.372       .  A
C555        C563   1.387       .  A
C556        N557   1.351       .  A
C556        H569   1.082       .  S
N557        C558   1.354       .  A
N557        C672   1.432       .  S
C558        H559   1.083       .  S
C560        N561   1.352       .  A
C560        H570   1.081       .  S
N561        C562   1.356       .  A
N561       C1601   1.433       .  S
C562        H568   1.081       .  S
C563        N564   1.354       .  A
C563        H565   1.082       .  S
N564        C566   1.353       .  A
N564       C3235   1.441       .  S
C566        H567   1.082       .  S
C571        C573   1.546       .  S
C571        C575   1.553       .  S
C571        C574   1.539       .  S
C571        C681   1.542       .  S
C572        C576   1.523       .  S
C572        C578   1.534       .  S
C572        C577   1.541       .  S
C572        C689   1.529       .  S
C573        C581   1.382       .  A
C574        C585   1.384       .  A
C575        C589   1.389       .  A
C576        C579   1.377       .  A
C577        C583   1.379       .  A
C578        C586   1.377       .  A
C579        H592   1.083       .  S
N580        C581   1.350   1_554  A
N580       C1492   1.430       .  S
C581        H582   1.081       .  S
C583        N584   1.355       .  A
C583        H593   1.080       .  S
N584        C817   1.447       .  S
C585        H591   1.082       .  S
C586        H588   1.082       .  S
N587        C589   1.351   1_554  A
N587        C655   1.431       .  S
C589        H590   1.079       .  S
C594        C596   1.574       .  S
C594        C598   1.553       .  S
C594        C597   1.545       .  S
C594        C673   1.550       .  S
C595        C599   1.534       .  S
C595        C601   1.529       .  S
C595        C600   1.527       .  S
C595        C697   1.530       .  S
C596        C604   1.387       .  A
C596        C599   1.417       .  A
C597        C608   1.384       .  A
C597        C600   1.390       .  A
C598        C612   1.391       .  A
C598        C601   1.394       .  A
C599        C602   1.389       .  A
C600        C606   1.371       .  A
C601        C609   1.375       .  A
C602        N603   1.347       .  A
C602        H615   1.083       .  S
N603        C604   1.345       .  A
N603        C670   1.437       .  S
C604        H605   1.078       .  S
C606        N607   1.354       .  A
C606        H616   1.082       .  S
N607        C608   1.363       .  A
N607        C801   1.439       .  S
C608        H614   1.082       .  S
C609        N610   1.354       .  A
C609        H611   1.083       .  S
N610        C612   1.362       .  A
N610       C1505   1.440       .  S
C612        H613   1.078       .  S
O617       Ni625   1.910   1_655  S
O618       Ni625   1.907       .  S
O619       Ni625   1.917       .  S
O620       Ni625   1.921       .  S
O621       Ni626   1.911       .  S
O621        C630   1.281   1_546  A
O622       Ni626   1.914       .  S
O622        C629   1.280   1_556  A
O623       Ni626   1.912       .  S
O623        C628   1.281   1_556  A
O624       Ni626   1.915   1_655  S
O624        C627   1.282   1_556  A
C627       N2177   1.432       .  S
C628       N1444   1.430   1_545  S
C630       N3133   1.435   1_455  S
O631       Ni639   1.922       .  S
O631        C641   1.281       .  A
O632       Ni639   1.920       .  S
O632        C642   1.281       .  A
O633       Ni639   1.925       .  S
O633        C643   1.283       .  A
O634       Ni639   1.926       .  S
O634        C644   1.284       .  A
O635       Ni640   1.925       .  S
O635        C644   1.282       .  A
O636       Ni640   1.925       .  S
O636        C643   1.283       .  A
O637       Ni640   1.926       .  S
O637        C642   1.283       .  A
O638       Ni640   1.924       .  S
O638        C641   1.284       .  A
Ni639      Ni640   2.386       .  S
C641       N1474   1.440   1_545  S
C642       N2193   1.439   1_455  S
C643       N3156   1.441   1_445  S
O645       Ni653   1.912       .  S
O646       Ni653   1.910       .  S
O647       Ni653   1.924       .  S
O648       Ni653   1.921       .  S
O649       Ni654   1.916       .  S
O649        C658   1.281   1_556  A
O650       Ni654   1.923       .  S
O650        C657   1.282   1_556  A
O651       Ni654   1.914       .  S
O651        C656   1.281   1_556  A
O652       Ni654   1.913       .  S
O652        C655   1.281   1_556  A
O659       Ni667   1.920       .  S
O659        C669   1.282       .  A
O660       Ni667   1.919       .  S
O660        C670   1.284       .  A
O661       Ni667   1.916       .  S
O661        C671   1.282       .  A
O662       Ni667   1.910       .  S
O662        C672   1.280       .  A
O663       Ni668   1.918       .  S
O663        C672   1.283       .  A
O664       Ni668   1.924       .  S
O664        C671   1.283       .  A
O665       Ni668   1.917       .  S
O665        C670   1.280       .  A
O666       Ni668   1.909       .  S
O666        C669   1.280       .  A
Ni667      Ni668   2.388       .  S
C673        C674   1.407       .  A
C673        C678   1.417       .  A
C674        C675   1.392       .  A
C674        H683   1.076       .  S
C675        C676   1.394       .  A
C675        H684   1.082       .  S
C676        C682   1.402       .  A
C676        C677   1.408       .  A
C677        C679   1.402       .  A
C677        C678   1.417       .  A
C678        H685   1.076       .  S
C679        C680   1.405       .  A
C679        H686   1.082       .  S
C680        C681   1.415       .  A
C680        H687   1.082       .  S
C681        C682   1.406       .  A
C682        H688   1.072       .  S
C689        C690   1.410       .  A
C689        C694   1.409       .  A
C690        C691   1.396       .  A
C690        H699   1.082       .  S
C691        C692   1.400       .  A
C691        H700   1.083       .  S
C692        C698   1.403       .  A
C692        C693   1.412       .  A
C693        C695   1.400       .  A
C693        C694   1.405       .  A
C694        H701   1.084       .  S
C695        C696   1.398       .  A
C695        H702   1.084       .  S
C696        C697   1.411       .  A
C696        H703   1.081       .  S
C697        C698   1.408       .  A
C698        H704   1.084       .  S
C705        C706   1.412       .  A
C705        C710   1.410       .  A
C706        C707   1.397       .  A
C706        H715   1.079       .  S
C707        C708   1.398       .  A
C707        H716   1.083       .  S
C708        C714   1.410       .  A
C708        C709   1.413       .  A
C709        C711   1.400       .  A
C709        C710   1.412       .  A
C710        H717   1.083       .  S
C711        C712   1.399       .  A
C711        H718   1.084       .  S
C712        C713   1.413       .  A
C712        H719   1.083       .  S
C713        C714   1.408       .  A
C714        H720   1.079       .  S
C721        C722   1.406       .  A
C721        C726   1.413       .  A
C722        C723   1.401       .  A
C722        H731   1.082       .  S
C723        C724   1.405       .  A
C723        H732   1.083       .  S
C724        C730   1.406       .  A
C724        C725   1.409       .  A
C725        C727   1.402       .  A
C725        C726   1.403       .  A
C726        H733   1.083       .  S
C727        C728   1.397       .  A
C727        H734   1.084       .  S
C728        C729   1.408       .  A
C728        H735   1.082       .  S
C729        C730   1.414       .  A
C730        H736   1.082       .  S
C737       C1602   1.405       .  A
C737        C742   1.403       .  A
C737       N1425   1.433   1_545  S
C738       C1601   1.405       .  A
C738       C1603   1.391       .  A
C738        H747   1.083       .  S
C739       C1602   1.391       .  A
C739        C740   1.398       .  A
C739       H1612   1.083       .  S
C740        C746   1.396       .  A
C740        C741   1.415       .  A
C741        C743   1.399       .  A
C741        C742   1.397       .  A
C742        H749   1.083       .  S
C743        C744   1.393       .  A
C743        H750   1.084       .  S
C744        C745   1.407       .  A
C744        H751   1.082       .  S
C745        C746   1.400       .  A
C746        H752   1.084       .  S
H748       C1603   1.083       .  S
C753       C1618   1.407       .  A
C753       N1402   1.445   1_545  S
C754       C1617   1.406       .  A
C754       C1619   1.397       .  A
C754        H763   1.082       .  S
C755       C1618   1.397       .  A
C755        C756   1.401       .  A
C755       H1628   1.083       .  S
C756        C762   1.405       .  A
C756        C757   1.413       .  A
C758        H765   1.083   1_545  S
C759        C760   1.401       .  A
C759        H766   1.084       .  S
C760        H767   1.082       .  S
C761        C762   1.407       .  A
C762        H768   1.083       .  S
H764       C1619   1.083       .  S
C769        C770   1.413       .  A
C769        C774   1.408       .  A
C770        C771   1.394       .  A
C770        H779   1.081       .  S
C771        C772   1.397       .  A
C771        H780   1.084       .  S
C772        C778   1.405       .  A
C772        C773   1.413       .  A
C773        C775   1.398       .  A
C773        C774   1.407       .  A
C774        H781   1.083       .  S
C775        C776   1.396       .  A
C775        H782   1.084       .  S
C776        C777   1.412       .  A
C776        H783   1.082       .  S
C777        C778   1.406       .  A
C778        H784   1.082       .  S
C785        C786   1.414       .  A
C785        C790   1.410       .  A
C786        C787   1.391       .  A
C786        H795   1.082       .  S
C787        C788   1.395       .  A
C787        H796   1.084       .  S
C788        C794   1.404       .  A
C788        C789   1.413       .  A
C789        C791   1.400       .  A
C789        C790   1.412       .  A
C790        H797   1.082       .  S
C791        C792   1.400       .  A
C791        H798   1.083       .  S
C792        C793   1.412       .  A
C792        H799   1.081       .  S
C793        C794   1.406       .  A
C794        H800   1.083       .  S
C801        C802   1.407       .  A
C801        C806   1.404       .  A
C802        C803   1.396       .  A
C802        H811   1.083       .  S
C803        C804   1.400       .  A
C803        H812   1.084       .  S
C804        C810   1.406       .  A
C804        C805   1.417       .  A
C805        C807   1.401       .  A
C805        C806   1.407       .  A
C806        H813   1.084       .  S
C807        C808   1.398       .  A
C807        H814   1.084       .  S
C808        C809   1.406       .  A
C808        H815   1.082       .  S
C809        C810   1.403       .  A
C809       N2197   1.439   1_455  S
C810       H2544   1.084       .  S
H816       C2538   1.084       .  S
C817        C822   1.407       .  A
C818        C819   1.397       .  A
C818        H827   1.080       .  S
C819        C820   1.399       .  A
C819        H828   1.084       .  S
C820        C826   1.405       .  A
C821        C823   1.399       .  A
C821        C822   1.404       .  A
C822        H829   1.083       .  S
C823        C824   1.395       .  A
C823        H830   1.084       .  S
C824        C825   1.410       .  A
C824        H831   1.080   1_455  S
C825       N2174   1.445   1_455  S
C826       H2560   1.083       .  S
H832       C2554   1.083       .  S
C833        C834   1.409       .  A
C833        C838   1.412       .  A
C834        C835   1.396       .  A
C834        H843   1.082       .  S
C835        C836   1.400       .  A
C835        H844   1.084       .  S
C836        C842   1.404       .  A
C836        C837   1.411       .  A
C837        C839   1.403       .  A
C837        C838   1.407       .  A
C838        H845   1.084       .  S
C839        C840   1.400       .  A
C839        H846   1.084       .  S
C840        C841   1.409       .  A
C840        H847   1.081       .  S
C841        C842   1.410       .  A
C842        H848   1.084       .  S
C849        C850   1.411       .  A
C849        C854   1.411       .  A
C850        C851   1.396       .  A
C850        H859   1.083       .  S
C851        C852   1.399       .  A
C851        H860   1.083       .  S
C852        C858   1.407       .  A
C852        C853   1.413       .  A
C853        C855   1.402       .  A
C853        C854   1.412       .  A
C854        H861   1.082       .  S
C855        C856   1.401       .  A
C855        H862   1.083       .  S
C856        C857   1.410       .  A
C856        H863   1.082       .  S
C857        C858   1.409       .  A
C858        H864   1.083       .  S
C865        C867   1.529       .  S
C865        C869   1.547       .  S
C865        C868   1.543       .  S
C865       C1289   1.535       .  S
C866        C870   1.532       .  S
C866        C872   1.545       .  S
C866        C871   1.535       .  S
C866       C1273   1.534       .  S
C867        C875   1.376       .  A
C867       C1302   1.399   1_554  A
C868        C879   1.380       .  A
C868       C1303   1.387   1_554  A
C869        C883   1.384       .  A
C869       C1304   1.423   1_554  A
C870       C1299   1.399       .  A
C870        C873   1.380       .  A
C871       C1300   1.387       .  A
C871        C877   1.373       .  A
C872       C1301   1.423       .  A
C872        C880   1.384       .  A
C873        N874   1.354       .  A
C873        H886   1.082       .  S
N874       C1307   1.351       .  A
N874       C1088   1.430       .  S
C875       N1306   1.351       .  A
C875        H876   1.082       .  S
C877       N1310   1.358       .  A
C877        H887   1.080       .  S
N878       C1309   1.358       .  A
N878        C879   1.362   1_556  A
N878       C2985   1.445       .  S
C879        H885   1.081       .  S
C880        N881   1.347       .  A
C880        H882   1.083       .  S
N881       C1315   1.349       .  A
N881       C2787   1.432       .  S
C883       N1313   1.349       .  A
C883        H884   1.082       .  S
C888        C890   1.544       .  S
C888        C892   1.533       .  S
C888        C891   1.548       .  S
C888       C1281   1.533       .  S
C889        C893   1.540       .  S
C889        C895   1.533       .  S
C889        C894   1.539       .  S
C889       C1265   1.530       .  S
C890        C898   1.385       .  A
C890        C893   1.406       .  A
C891        C902   1.386       .  A
C891        C894   1.397       .  A
C892        C906   1.379       .  A
C892        C895   1.405       .  A
C893        C896   1.385       .  A
C894        C900   1.373       .  A
C895        C903   1.384       .  A
C896        N897   1.353       .  A
C896        H909   1.082       .  S
N897        C898   1.352       .  A
N897       C2802   1.439       .  S
C898        H899   1.083       .  S
C900        N901   1.355       .  A
C900        H910   1.082       .  S
N901        C902   1.361       .  A
N901       C2969   1.439       .  S
C902        H908   1.082       .  S
C903        N904   1.350       .  A
C903        H905   1.083       .  S
N904        C906   1.351       .  A
N904       C1101   1.432       .  S
C906        H907   1.083       .  S
C911        C913   1.530       .  S
C911        C915   1.535       .  S
C911        C914   1.549       .  S
C911       C1217   1.534       .  S
C912        C916   1.540       .  S
C912        C918   1.542       .  S
C912        C917   1.541       .  S
C912       C1201   1.532       .  S
C913        C921   1.381       .  A
C913       C1348   1.407   1_554  A
C914        C925   1.379       .  A
C914       C1349   1.397   1_554  A
C915        C929   1.380       .  A
C915       C1350   1.401   1_554  A
C916       C1345   1.407       .  A
C916        C919   1.385       .  A
C917       C1346   1.397       .  A
C917        C923   1.378       .  A
C918       C1347   1.401       .  A
C918        C926   1.390       .  A
C919        N920   1.353       .  A
C919        H932   1.082       .  S
N920       C1353   1.350       .  A
N920       C1090   1.436       .  S
C921       N1352   1.350       .  A
C921        H922   1.082       .  S
C923       N1356   1.361       .  A
C923        H933   1.081       .  S
N924       C1355   1.361       .  A
N924        C925   1.363   1_556  A
N924       C1193   1.446       .  S
C925        H931   1.081       .  S
C926        N927   1.351       .  A
C926        H928   1.083       .  S
N927       C1361   1.345       .  A
N927       C1061   1.433       .  S
C929       N1359   1.345       .  A
C929        H930   1.083       .  S
C934        C936   1.535       .  S
C934        C938   1.547       .  S
C934        C937   1.531       .  S
C934       C1209   1.531       .  S
C935        C939   1.538       .  S
C935        C941   1.554       .  S
C935        C940   1.534       .  S
C935       C1225   1.533       .  S
C936        C944   1.380       .  A
C936        C939   1.401       .  A
C937        C948   1.371       .  A
C937        C940   1.386       .  A
C938        C952   1.389       .  A
C938        C941   1.418       .  A
C939        C942   1.386       .  A
C940        C946   1.376       .  A
C941        C949   1.389       .  A
C942        N943   1.356       .  A
C942        H955   1.082       .  S
N943        C944   1.353       .  A
N943       C1103   1.438       .  S
C944        H945   1.082       .  S
C946        N947   1.357       .  A
C946        H956   1.080       .  S
N947        C948   1.353       .  A
N947       C1177   1.432       .  S
C948        H954   1.082       .  S
C949        N950   1.353       .  A
C949        H951   1.082       .  S
N950        C952   1.351       .  A
N950       C1076   1.442       .  S
C952        H953   1.082       .  S
C957        C959   1.536       .  S
C957        C961   1.540       .  S
C957        C960   1.542       .  S
C957       C1161   1.533       .  S
C958        C962   1.539       .  S
C958        C964   1.543       .  S
C958        C963   1.550       .  S
C958       C1145   1.539       .  S
C959        C967   1.383       .  A
C959       C1394   1.407   1_554  A
C960        C971   1.375       .  A
C960       C1395   1.396   1_554  A
C961        C975   1.390       .  A
C961       C1396   1.406   1_554  A
C962       C1391   1.407       .  A
C962        C965   1.388       .  A
C963       C1392   1.396       .  A
C963        C969   1.386       .  A
C964       C1393   1.406       .  A
C964        C972   1.381       .  A
C965        N966   1.356       .  A
C965        H978   1.083       .  S
N966       C1399   1.350       .  A
N966       C1089   1.440       .  S
C967       N1398   1.350       .  A
C967        H968   1.082       .  S
C969       N1402   1.361       .  A
C969        H979   1.080       .  S
N970       C1401   1.361   1_554  A
N970        C971   1.358       .  A
C971        H977   1.081       .  S
C972        N973   1.348       .  A
C972        H974   1.083       .  S
N973       C1407   1.351       .  A
N973       C1926   1.435       .  S
C975       N1405   1.351       .  A
C975        H976   1.083       .  S
C980        C982   1.537       .  S
C980        C984   1.547       .  S
C980        C983   1.539       .  S
C980       C1137   1.536       .  S
C981        C985   1.530       .  S
C981        C987   1.548       .  S
C981        C986   1.530       .  S
C981       C1153   1.532       .  S
C982        C990   1.381       .  A
C982        C985   1.403       .  A
C983        C994   1.379       .  A
C983        C986   1.388       .  A
C984        C998   1.385       .  A
C984        C987   1.418       .  A
C985        C988   1.378       .  A
C986        C992   1.372       .  A
C987        C995   1.387       .  A
C988        N989   1.351       .  A
C988       H1001   1.082       .  S
N989        C990   1.354       .  A
N989       C1104   1.432       .  S
C990        H991   1.083       .  S
C992        N993   1.352       .  A
C992       H1002   1.081       .  S
N993        C994   1.356       .  A
C994       H1000   1.081       .  S
C995        N996   1.354       .  A
C995        H997   1.082       .  S
N996        C998   1.353       .  A
N996       C1939   1.441   1_565  S
C998        H999   1.082       .  S
C1003      C1005   1.546       .  S
C1003      C1007   1.553       .  S
C1003      C1006   1.538       .  S
C1003      C1113   1.541       .  S
C1004      C1008   1.523       .  S
C1004      C1010   1.534       .  S
C1004      C1009   1.541       .  S
C1004      C1121   1.529       .  S
C1005      C1013   1.382       .  A
C1005      C1440   1.403       .  A
C1006      C1017   1.383       .  A
C1006      C1441   1.400       .  A
C1007      C1021   1.389       .  A
C1007      C1442   1.409       .  A
C1008      C1437   1.403   1_554  A
C1008      C1011   1.377       .  A
C1009      C1438   1.400   1_554  A
C1009      C1015   1.379       .  A
C1010      C1439   1.409   1_554  A
C1010      C1018   1.377       .  A
C1011      N1444   1.350       .  A
C1011      H1024   1.083       .  S
N1012      C1443   1.350       .  A
N1012      C1013   1.350       .  A
C1013      H1014   1.081       .  S
C1015      N1016   1.355   1_554  A
C1015      H1025   1.080       .  S
N1016      C1449   1.358       .  A
N1016      C1249   1.447   1_556  S
C1017      N1448   1.358       .  A
C1017      H1023   1.082       .  S
C1018      N1451   1.348       .  A
C1018      H1020   1.082       .  S
N1019      C1450   1.348       .  A
N1019      C1021   1.352       .  A
N1019      C1087   1.431       .  S
C1021      H1022   1.080       .  S
C1026      C1028   1.575       .  S
C1026      C1030   1.554       .  S
C1026      C1029   1.545       .  S
C1026      C1105   1.550       .  S
C1027      C1031   1.534       .  S
C1027      C1033   1.530       .  S
C1027      C1032   1.527       .  S
C1027      C1129   1.530       .  S
C1028      C1036   1.387       .  A
C1028      C1031   1.417       .  A
C1029      C1040   1.384       .  A
C1029      C1032   1.390       .  A
C1030      C1044   1.391       .  A
C1030      C1033   1.395       .  A
C1031      C1034   1.389       .  A
C1032      C1038   1.371       .  A
C1033      C1041   1.376       .  A
C1034      N1035   1.347       .  A
C1034      H1047   1.083       .  S
N1035      C1036   1.344       .  A
N1035      C1102   1.437       .  S
C1036      H1037   1.078       .  S
C1038      N1039   1.354       .  A
C1038      H1048   1.082       .  S
N1039      C1040   1.363       .  A
N1039      C1233   1.439       .  S
C1040      H1046   1.082       .  S
C1041      N1042   1.354       .  A
C1041      H1043   1.083       .  S
N1042      C1044   1.362       .  A
C1044      H1045   1.078       .  S
O1049     Ni1057   1.910   1_655  S
O1049      C1491   1.280       .  A
O1050     Ni1057   1.908       .  S
O1050      C1492   1.280       .  A
O1051     Ni1057   1.917       .  S
O1051      C1493   1.283       .  A
O1052     Ni1057   1.922       .  S
O1052      C1494   1.282       .  A
O1053     Ni1058   1.911       .  S
O1053      C1062   1.281       .  A
O1054     Ni1058   1.914       .  S
O1054      C1061   1.280       .  A
O1055     Ni1058   1.911       .  S
O1055      C1060   1.281       .  A
O1056     Ni1058   1.915   1_655  S
O1056      C1059   1.282       .  A
Ni1057    Ni1490   2.389   1_554  S
Ni1058    Ni1489   2.389       .  S
C1059      N2609   1.432       .  S
C1059      O1481   1.280       .  A
C1060      O1482   1.280       .  A
C1061      O1483   1.283       .  A
C1062      N1837   1.435   1_455  S
C1062      O1484   1.282       .  A
O1063     Ni1071   1.922       .  S
O1063      C1073   1.281       .  A
O1064     Ni1071   1.920       .  S
O1064      C1074   1.282       .  A
O1065     Ni1071   1.925       .  S
O1065      C1075   1.283       .  A
O1066     Ni1071   1.927       .  S
O1066      C1076   1.284       .  A
O1067     Ni1072   1.925       .  S
O1067      C1076   1.282       .  A
O1068     Ni1072   1.925       .  S
O1068      C1075   1.283       .  A
O1069     Ni1072   1.925       .  S
O1069      C1074   1.283       .  A
O1070     Ni1072   1.923       .  S
O1070      C1073   1.284       .  A
Ni1071    Ni1072   2.386       .  S
C1074      N2625   1.439   1_455  S
C1075      N1860   1.441   1_455  S
O1077     Ni1085   1.912       .  S
O1077      C1519   1.280       .  A
O1078     Ni1085   1.910       .  S
O1078      C1520   1.280       .  A
O1079     Ni1085   1.924       .  S
O1079      C1521   1.284       .  A
O1080     Ni1085   1.921       .  S
O1080      C1522   1.283       .  A
O1081     Ni1086   1.917       .  S
O1081      C1090   1.281       .  A
O1082     Ni1086   1.923       .  S
O1082      C1089   1.282       .  A
O1083     Ni1086   1.913       .  S
O1083      C1088   1.281       .  A
O1084     Ni1086   1.912       .  S
O1084      C1087   1.281       .  A
Ni1085    Ni1518   2.388   1_554  S
Ni1086    Ni1517   2.388       .  S
C1087      O1509   1.280       .  A
C1088      O1510   1.280       .  A
C1089      O1511   1.284       .  A
C1090      O1512   1.283       .  A
O1091     Ni1099   1.920       .  S
O1091      C1101   1.282       .  A
O1092     Ni1099   1.919       .  S
O1092      C1102   1.284       .  A
O1093     Ni1099   1.916       .  S
O1093      C1103   1.282       .  A
O1094     Ni1099   1.910       .  S
O1094      C1104   1.279       .  A
O1095     Ni1100   1.918       .  S
O1095      C1104   1.283       .  A
O1096     Ni1100   1.925       .  S
O1096      C1103   1.283       .  A
O1097     Ni1100   1.917       .  S
O1097      C1102   1.280       .  A
O1098     Ni1100   1.909       .  S
O1098      C1101   1.280       .  A
Ni1099    Ni1100   2.388       .  S
C1105      C1106   1.408       .  A
C1105      C1110   1.417       .  A
C1106      C1107   1.392       .  A
C1106      H1115   1.076       .  S
C1107      C1108   1.393       .  A
C1107      H1116   1.082       .  S
C1108      C1114   1.402       .  A
C1108      C1109   1.408       .  A
C1109      C1111   1.402       .  A
C1109      C1110   1.417       .  A
C1110      H1117   1.076       .  S
C1111      C1112   1.405       .  A
C1111      H1118   1.082       .  S
C1112      C1113   1.415       .  A
C1112      H1119   1.082       .  S
C1113      C1114   1.406       .  A
C1114      H1120   1.072       .  S
C1121      C1122   1.410       .  A
C1121      C1126   1.409       .  A
C1122      C1123   1.396       .  A
C1122      H1131   1.082       .  S
C1123      C1124   1.399       .  A
C1123      H1132   1.083       .  S
C1124      C1130   1.403       .  A
C1124      C1125   1.412       .  A
C1125      C1127   1.400       .  A
C1125      C1126   1.405       .  A
C1126      H1133   1.084       .  S
C1127      C1128   1.397       .  A
C1127      H1134   1.084       .  S
C1128      C1129   1.411       .  A
C1128      H1135   1.081       .  S
C1129      C1130   1.408       .  A
C1130      H1136   1.084       .  S
C1137      C1138   1.412       .  A
C1137      C1142   1.410       .  A
C1138      C1139   1.398       .  A
C1138      H1147   1.079       .  S
C1139      C1140   1.399       .  A
C1139      H1148   1.083       .  S
C1140      C1146   1.410       .  A
C1140      C1141   1.413       .  A
C1141      C1143   1.400       .  A
C1141      C1142   1.412       .  A
C1142      H1149   1.083       .  S
C1143      C1144   1.399       .  A
C1143      H1150   1.084       .  S
C1144      C1145   1.413       .  A
C1144      H1151   1.083       .  S
C1145      C1146   1.408       .  A
C1146      H1152   1.079       .  S
C1153      C1154   1.405       .  A
C1153      C1158   1.413       .  A
C1154      C1155   1.401       .  A
C1154      H1163   1.082       .  S
C1155      C1156   1.405       .  A
C1155      H1164   1.083       .  S
C1156      C1162   1.406       .  A
C1156      C1157   1.409       .  A
C1157      C1159   1.402       .  A
C1157      C1158   1.403       .  A
C1158      H1165   1.084       .  S
C1159      C1160   1.397       .  A
C1159      H1166   1.084       .  S
C1160      C1161   1.408       .  A
C1160      H1167   1.082       .  S
C1161      C1162   1.414       .  A
C1162      H1168   1.082       .  S
C1169      C1174   1.403       .  A
C1170      H1179   1.083   1_545  S
C1171      C1172   1.398       .  A
C1172      C1178   1.396       .  A
C1172      C1173   1.415       .  A
C1173      C1175   1.399       .  A
C1173      C1174   1.397       .  A
C1174      H1181   1.083       .  S
C1175      C1176   1.393       .  A
C1175      H1182   1.084       .  S
C1176      C1177   1.407       .  A
C1176      H1183   1.082       .  S
C1177      C1178   1.400       .  A
C1178      H1184   1.084       .  S
C1185      C1622   1.409   1_554  A
C1186      H1195   1.082       .  S
C1187      C1188   1.401       .  A
C1188      C1194   1.405       .  A
C1188      C1189   1.413   1_554  A
C1189      C1623   1.404       .  A
C1189      C1622   1.409       .  A
C1190      C1617   1.409       .  A
C1190      C1621   1.409       .  A
C1190      H1197   1.083       .  S
C1191      C1621   1.404       .  A
C1191      C1192   1.401       .  A
C1191      H1198   1.084       .  S
C1192      C1625   1.408       .  A
C1192      H1199   1.082       .  S
C1193      C1624   1.408       .  A
C1193      C1194   1.407   1_556  A
C1194      H1200   1.083       .  S
C1201      C1202   1.413       .  A
C1201      C1206   1.408       .  A
C1202      C1203   1.394       .  A
C1202      H1211   1.081       .  S
C1203      C1204   1.396       .  A
C1203      H1212   1.084       .  S
C1204      C1210   1.405       .  A
C1204      C1205   1.413       .  A
C1205      C1207   1.398       .  A
C1205      C1206   1.407       .  A
C1206      H1213   1.083       .  S
C1207      C1208   1.396       .  A
C1207      H1214   1.084       .  S
C1208      C1209   1.412       .  A
C1208      H1215   1.082       .  S
C1209      C1210   1.406       .  A
C1210      H1216   1.082       .  S
C1217      C1218   1.414       .  A
C1217      C1222   1.410       .  A
C1218      C1219   1.391       .  A
C1218      H1227   1.082       .  S
C1219      C1220   1.395       .  A
C1219      H1228   1.084       .  S
C1220      C1226   1.404       .  A
C1220      C1221   1.413       .  A
C1221      C1223   1.400       .  A
C1221      C1222   1.412       .  A
C1222      H1229   1.082       .  S
C1223      C1224   1.400       .  A
C1223      H1230   1.083       .  S
C1224      C1225   1.412       .  A
C1224      H1231   1.081       .  S
C1225      C1226   1.406       .  A
C1226      H1232   1.083       .  S
C1233      C1234   1.407       .  A
C1233      C1238   1.404       .  A
C1234      C1235   1.396       .  A
C1234      H1243   1.083       .  S
C1235      C1236   1.400       .  A
C1235      H1244   1.084       .  S
C1236      C1242   1.406       .  A
C1236      C1237   1.417       .  A
C1237      C1239   1.401       .  A
C1237      C1238   1.407       .  A
C1238      H1245   1.084       .  S
C1239      C1240   1.397       .  A
C1239      H1246   1.084       .  S
C1240      C1241   1.406       .  A
C1240      H1247   1.082       .  S
C1241      C1242   1.403       .  A
C1241      N2629   1.439   1_455  S
C1242      H2976   1.084       .  S
H1248      C2970   1.084       .  S
C1249      C1682   1.410       .  A
C1249      C1254   1.407   1_554  A
C1250      C1681   1.410       .  A
C1250      C1251   1.397       .  A
C1250      H1259   1.080       .  S
C1251      C1252   1.399       .  A
C1251      H1260   1.084       .  S
C1252      C1258   1.405       .  A
C1252      C1685   1.413       .  A
C1253      C1684   1.413   1_556  A
C1253      C1255   1.399       .  A
C1253      C1254   1.404       .  A
C1254      H1261   1.083       .  S
C1255      C1256   1.395       .  A
C1255      H1262   1.084       .  S
C1256      C1257   1.410       .  A
C1256      H1263   1.080   1_455  S
C1257      C1690   1.407   1_556  A
C1257      N2606   1.445   1_455  S
C1258      C1689   1.407       .  A
C1258      H2992   1.083       .  S
H1264      C2986   1.083       .  S
C1265      C1266   1.409       .  A
C1265      C1270   1.411       .  A
C1266      C1267   1.396       .  A
C1266      H1275   1.082       .  S
C1267      C1268   1.400       .  A
C1267      H1276   1.084       .  S
C1268      C1274   1.404       .  A
C1268      C1269   1.411       .  A
C1269      C1271   1.402       .  A
C1269      C1270   1.407       .  A
C1270      H1277   1.084       .  S
C1271      C1272   1.400       .  A
C1271      H1278   1.084       .  S
C1272      C1273   1.409       .  A
C1272      H1279   1.081       .  S
C1273      C1274   1.410       .  A
C1274      H1280   1.084       .  S
C1281      C1282   1.411       .  A
C1281      C1286   1.412       .  A
C1282      C1283   1.395       .  A
C1282      H1291   1.083       .  S
C1283      C1284   1.398       .  A
C1283      H1292   1.083       .  S
C1284      C1290   1.407       .  A
C1284      C1285   1.413       .  A
C1285      C1287   1.402       .  A
C1285      C1286   1.412       .  A
C1286      H1293   1.082       .  S
C1287      C1288   1.401       .  A
C1287      H1294   1.083       .  S
C1288      C1289   1.410       .  A
C1288      H1295   1.082       .  S
C1289      C1290   1.409       .  A
C1290      H1296   1.083       .  S
C1297      C1299   1.529       .  S
C1297      C1301   1.547       .  S
C1297      C1300   1.543       .  S
C1297      C1721   1.535       .  S
C1298      C1302   1.532       .  S
C1298      C1304   1.545       .  S
C1298      C1303   1.535       .  S
C1298      C1705   1.534       .  S
C1299      C1307   1.376       .  A
C1300      C1311   1.380       .  A
C1301      C1315   1.384       .  A
C1302      C1305   1.380       .  A
C1303      C1309   1.373       .  A
C1304      C1312   1.384       .  A
C1305      N1306   1.354   1_556  A
C1305      H1318   1.082       .  S
N1306      C1520   1.430       .  S
C1307      H1308   1.082       .  S
C1309      H1319   1.080       .  S
N1310      C1311   1.362       .  A
N1310      C3417   1.445       .  S
C1311      H1317   1.081       .  S
C1312      N1313   1.347   1_556  A
C1312      H1314   1.083       .  S
N1313      C3219   1.432       .  S
C1315      H1316   1.082       .  S
C1320      C1322   1.544       .  S
C1320      C1324   1.533       .  S
C1320      C1323   1.548       .  S
C1320      C1713   1.533       .  S
C1321      C1325   1.540       .  S
C1321      C1327   1.533       .  S
C1321      C1326   1.539       .  S
C1321      C1697   1.530       .  S
C1322      C1330   1.385       .  A
C1322      C1325   1.406       .  A
C1323      C1334   1.386       .  A
C1323      C1326   1.397       .  A
C1324      C1338   1.379       .  A
C1324      C1327   1.405       .  A
C1325      C1328   1.385       .  A
C1326      C1332   1.373       .  A
C1327      C1335   1.384       .  A
C1328      N1329   1.353       .  A
C1328      H1341   1.082       .  S
N1329      C1330   1.352       .  A
N1329      C3234   1.439       .  S
C1330      H1331   1.083       .  S
C1332      N1333   1.355       .  A
C1332      H1342   1.082       .  S
N1333      C1334   1.361       .  A
N1333      C3401   1.439       .  S
C1334      H1340   1.082       .  S
C1335      N1336   1.350       .  A
C1335      H1337   1.083       .  S
N1336      C1338   1.351       .  A
N1336      C1533   1.432       .  S
C1338      H1339   1.083       .  S
C1343      C1345   1.530       .  S
C1343      C1347   1.535       .  S
C1343      C1346   1.549       .  S
C1343      C1649   1.534       .  S
C1344      C1348   1.540       .  S
C1344      C1350   1.542       .  S
C1344      C1349   1.541       .  S
C1344      C1633   1.532       .  S
C1345      C1353   1.381       .  A
C1346      C1357   1.379       .  A
C1347      C1361   1.380       .  A
C1348      C1351   1.385       .  A
C1349      C1355   1.378       .  A
C1350      C1358   1.390       .  A
C1351      N1352   1.353   1_556  A
C1351      H1364   1.082       .  S
N1352      C1522   1.436       .  S
C1353      H1354   1.082       .  S
C1355      H1365   1.081       .  S
N1356      C1357   1.363       .  A
N1356      C1625   1.446       .  S
C1357      H1363   1.081       .  S
C1358      N1359   1.351   1_556  A
C1358      H1360   1.083       .  S
N1359      C1493   1.433       .  S
C1361      H1362   1.083       .  S
C1366      C1368   1.535       .  S
C1366      C1370   1.547       .  S
C1366      C1369   1.531       .  S
C1366      C1641   1.531       .  S
C1367      C1371   1.538       .  S
C1367      C1373   1.554       .  S
C1367      C1372   1.534       .  S
C1367      C1657   1.533       .  S
C1368      C1376   1.380       .  A
C1368      C1371   1.401       .  A
C1369      C1380   1.371       .  A
C1369      C1372   1.386       .  A
C1370      C1384   1.389       .  A
C1370      C1373   1.418       .  A
C1371      C1374   1.386       .  A
C1372      C1378   1.376       .  A
C1373      C1381   1.389       .  A
C1374      N1375   1.356       .  A
C1374      H1387   1.082       .  S
N1375      C1376   1.353       .  A
N1375      C1535   1.438       .  S
C1376      H1377   1.082       .  S
C1378      N1379   1.357       .  A
C1378      H1388   1.080       .  S
N1379      C1380   1.353       .  A
N1379      C1609   1.432       .  S
C1380      H1386   1.082       .  S
C1381      N1382   1.353       .  A
C1381      H1383   1.082       .  S
N1382      C1384   1.351       .  A
N1382      C1508   1.442       .  S
C1384      H1385   1.082       .  S
C1389      C1391   1.536       .  S
C1389      C1393   1.540       .  S
C1389      C1392   1.542       .  S
C1389      C1593   1.533       .  S
C1390      C1394   1.539       .  S
C1390      C1396   1.543       .  S
C1390      C1395   1.550       .  S
C1390      C1577   1.539       .  S
C1391      C1399   1.383       .  A
C1392      C1403   1.375       .  A
C1393      C1407   1.390       .  A
C1394      C1397   1.388       .  A
C1395      C1401   1.386       .  A
C1396      C1404   1.381       .  A
C1397      N1398   1.356   1_556  A
C1397      H1410   1.083       .  S
N1398      C1521   1.440       .  S
C1399      H1400   1.082       .  S
C1401      H1411   1.080       .  S
N1402      C1403   1.358       .  A
C1403      H1409   1.081       .  S
C1404      N1405   1.348   1_556  A
C1404      H1406   1.083       .  S
N1405      C2358   1.435       .  S
C1407      H1408   1.083       .  S
C1412      C1414   1.537       .  S
C1412      C1416   1.547       .  S
C1412      C1415   1.539       .  S
C1412      C1569   1.536       .  S
C1413      C1417   1.530       .  S
C1413      C1419   1.548       .  S
C1413      C1418   1.530       .  S
C1413      C1585   1.532       .  S
C1414      C1422   1.381       .  A
C1414      C1417   1.403       .  A
C1415      C1426   1.379       .  A
C1415      C1418   1.388       .  A
C1416      C1430   1.385       .  A
C1416      C1419   1.418       .  A
C1417      C1420   1.378       .  A
C1418      C1424   1.372       .  A
C1419      C1427   1.387       .  A
C1420      N1421   1.351       .  A
C1420      H1433   1.082       .  S
N1421      C1422   1.354       .  A
N1421      C1536   1.432       .  S
C1422      H1423   1.083       .  S
C1424      N1425   1.352       .  A
C1424      H1434   1.081       .  S
N1425      C1426   1.356       .  A
C1426      H1432   1.081       .  S
C1427      N1428   1.354       .  A
C1427      H1429   1.082       .  S
N1428      C1430   1.353       .  A
N1428      C2371   1.441   1_565  S
C1430      H1431   1.082       .  S
C1435      C1437   1.546       .  S
C1435      C1439   1.553       .  S
C1435      C1438   1.538       .  S
C1435      C1545   1.541       .  S
C1436      C1440   1.523       .  S
C1436      C1442   1.534       .  S
C1436      C1441   1.541       .  S
C1436      C1553   1.529       .  S
C1437      C1445   1.382       .  A
C1438      C1449   1.383       .  A
C1439      C1453   1.389       .  A
C1440      C1443   1.377       .  A
C1441      C1447   1.379       .  A
C1442      C1450   1.377       .  A
C1443      H1456   1.083       .  S
N1444      C1445   1.350   1_554  A
C1445      H1446   1.081       .  S
C1447      N1448   1.355       .  A
C1447      H1457   1.080       .  S
N1448      C1681   1.447       .  S
C1449      H1455   1.082       .  S
C1450      H1452   1.082       .  S
N1451      C1453   1.352   1_554  A
N1451      C1519   1.431       .  S
C1453      H1454   1.080       .  S
C1458      C1460   1.575       .  S
C1458      C1462   1.554       .  S
C1458      C1461   1.545       .  S
C1458      C1537   1.550       .  S
C1459      C1463   1.534       .  S
C1459      C1465   1.530       .  S
C1459      C1464   1.527       .  S
C1459      C1561   1.530       .  S
C1460      C1468   1.387       .  A
C1460      C1463   1.417       .  A
C1461      C1472   1.384       .  A
C1461      C1464   1.390       .  A
C1462      C1476   1.391       .  A
C1462      C1465   1.395       .  A
C1463      C1466   1.389       .  A
C1464      C1470   1.371       .  A
C1465      C1473   1.376       .  A
C1466      N1467   1.347       .  A
C1466      H1479   1.083       .  S
N1467      C1468   1.344       .  A
N1467      C1534   1.437       .  S
C1468      H1469   1.078       .  S
C1470      N1471   1.354       .  A
C1470      H1480   1.082       .  S
N1471      C1472   1.363       .  A
N1471      C1665   1.439       .  S
C1472      H1478   1.082       .  S
C1473      N1474   1.354       .  A
C1473      H1475   1.083       .  S
N1474      C1476   1.362       .  A
C1476      H1477   1.078       .  S
O1481     Ni1489   1.910   1_655  S
O1482     Ni1489   1.908       .  S
O1483     Ni1489   1.917       .  S
O1484     Ni1489   1.922       .  S
O1485     Ni1490   1.911       .  S
O1485      C1494   1.281   1_556  A
O1486     Ni1490   1.914       .  S
O1486      C1493   1.280   1_556  A
O1487     Ni1490   1.911       .  S
O1487      C1492   1.281   1_556  A
O1488     Ni1490   1.915   1_655  S
O1488      C1491   1.282   1_556  A
C1491      N3041   1.432       .  S
C1494      N2269   1.435   1_455  S
O1495     Ni1503   1.922       .  S
O1495      C1505   1.281       .  A
O1496     Ni1503   1.920       .  S
O1496      C1506   1.282       .  A
O1497     Ni1503   1.925       .  S
O1497      C1507   1.283       .  A
O1498     Ni1503   1.927       .  S
O1498      C1508   1.284       .  A
O1499     Ni1504   1.925       .  S
O1499      C1508   1.282       .  A
O1500     Ni1504   1.925       .  S
O1500      C1507   1.283       .  A
O1501     Ni1504   1.925       .  S
O1501      C1506   1.283       .  A
O1502     Ni1504   1.923       .  S
O1502      C1505   1.284       .  A
Ni1503    Ni1504   2.386       .  S
C1506      N3057   1.439   1_455  S
C1507      N2292   1.441   1_455  S
O1509     Ni1517   1.912       .  S
O1510     Ni1517   1.910       .  S
O1511     Ni1517   1.924       .  S
O1512     Ni1517   1.921       .  S
O1513     Ni1518   1.917       .  S
O1513      C1522   1.281   1_556  A
O1514     Ni1518   1.923       .  S
O1514      C1521   1.282   1_556  A
O1515     Ni1518   1.913       .  S
O1515      C1520   1.281   1_556  A
O1516     Ni1518   1.912       .  S
O1516      C1519   1.281   1_556  A
O1523     Ni1531   1.920       .  S
O1523      C1533   1.282       .  A
O1524     Ni1531   1.919       .  S
O1524      C1534   1.284       .  A
O1525     Ni1531   1.916       .  S
O1525      C1535   1.282       .  A
O1526     Ni1531   1.910       .  S
O1526      C1536   1.279       .  A
O1527     Ni1532   1.918       .  S
O1527      C1536   1.283       .  A
O1528     Ni1532   1.925       .  S
O1528      C1535   1.283       .  A
O1529     Ni1532   1.917       .  S
O1529      C1534   1.280       .  A
O1530     Ni1532   1.909       .  S
O1530      C1533   1.280       .  A
Ni1531    Ni1532   2.388       .  S
C1537      C1538   1.408       .  A
C1537      C1542   1.417       .  A
C1538      C1539   1.392       .  A
C1538      H1547   1.076       .  S
C1539      C1540   1.393       .  A
C1539      H1548   1.082       .  S
C1540      C1546   1.402       .  A
C1540      C1541   1.408       .  A
C1541      C1543   1.402       .  A
C1541      C1542   1.417       .  A
C1542      H1549   1.076       .  S
C1543      C1544   1.405       .  A
C1543      H1550   1.082       .  S
C1544      C1545   1.415       .  A
C1544      H1551   1.082       .  S
C1545      C1546   1.406       .  A
C1546      H1552   1.072       .  S
C1553      C1554   1.410       .  A
C1553      C1558   1.409       .  A
C1554      C1555   1.396       .  A
C1554      H1563   1.082       .  S
C1555      C1556   1.399       .  A
C1555      H1564   1.083       .  S
C1556      C1562   1.403       .  A
C1556      C1557   1.412       .  A
C1557      C1559   1.400       .  A
C1557      C1558   1.405       .  A
C1558      H1565   1.084       .  S
C1559      C1560   1.397       .  A
C1559      H1566   1.084       .  S
C1560      C1561   1.411       .  A
C1560      H1567   1.081       .  S
C1561      C1562   1.408       .  A
C1562      H1568   1.084       .  S
C1569      C1570   1.412       .  A
C1569      C1574   1.410       .  A
C1570      C1571   1.398       .  A
C1570      H1579   1.079       .  S
C1571      C1572   1.399       .  A
C1571      H1580   1.083       .  S
C1572      C1578   1.410       .  A
C1572      C1573   1.413       .  A
C1573      C1575   1.400       .  A
C1573      C1574   1.412       .  A
C1574      H1581   1.083       .  S
C1575      C1576   1.399       .  A
C1575      H1582   1.084       .  S
C1576      C1577   1.413       .  A
C1576      H1583   1.083       .  S
C1577      C1578   1.408       .  A
C1578      H1584   1.079       .  S
C1585      C1586   1.405       .  A
C1585      C1590   1.413       .  A
C1586      C1587   1.401       .  A
C1586      H1595   1.082       .  S
C1587      C1588   1.405       .  A
C1587      H1596   1.083       .  S
C1588      C1594   1.406       .  A
C1588      C1589   1.409       .  A
C1589      C1591   1.402       .  A
C1589      C1590   1.403       .  A
C1590      H1597   1.084       .  S
C1591      C1592   1.397       .  A
C1591      H1598   1.084       .  S
C1592      C1593   1.408       .  A
C1592      H1599   1.082       .  S
C1593      C1594   1.414       .  A
C1594      H1600   1.082       .  S
C1601      C1606   1.403       .  A
C1602      H1611   1.083   1_545  S
C1603      C1604   1.398       .  A
C1604      C1610   1.396       .  A
C1604      C1605   1.415       .  A
C1605      C1607   1.399       .  A
C1605      C1606   1.397       .  A
C1606      H1613   1.083       .  S
C1607      C1608   1.393       .  A
C1607      H1614   1.084       .  S
C1608      C1609   1.407       .  A
C1608      H1615   1.082       .  S
C1609      C1610   1.400       .  A
C1610      H1616   1.084       .  S
C1618      H1627   1.082       .  S
C1619      C1620   1.401       .  A
C1620      C1626   1.405       .  A
C1620      C1621   1.413       .  A
C1622      H1629   1.083       .  S
C1623      C1624   1.401       .  A
C1623      H1630   1.084       .  S
C1624      H1631   1.082       .  S
C1625      C1626   1.407       .  A
C1626      H1632   1.083       .  S
C1633      C1634   1.413       .  A
C1633      C1638   1.408       .  A
C1634      C1635   1.394       .  A
C1634      H1643   1.081       .  S
C1635      C1636   1.396       .  A
C1635      H1644   1.084       .  S
C1636      C1642   1.405       .  A
C1636      C1637   1.413       .  A
C1637      C1639   1.398       .  A
C1637      C1638   1.407       .  A
C1638      H1645   1.083       .  S
C1639      C1640   1.396       .  A
C1639      H1646   1.084       .  S
C1640      C1641   1.412       .  A
C1640      H1647   1.082       .  S
C1641      C1642   1.406       .  A
C1642      H1648   1.082       .  S
C1649      C1650   1.414       .  A
C1649      C1654   1.410       .  A
C1650      C1651   1.391       .  A
C1650      H1659   1.082       .  S
C1651      C1652   1.395       .  A
C1651      H1660   1.084       .  S
C1652      C1658   1.404       .  A
C1652      C1653   1.413       .  A
C1653      C1655   1.400       .  A
C1653      C1654   1.412       .  A
C1654      H1661   1.082       .  S
C1655      C1656   1.400       .  A
C1655      H1662   1.083       .  S
C1656      C1657   1.412       .  A
C1656      H1663   1.081       .  S
C1657      C1658   1.406       .  A
C1658      H1664   1.083       .  S
C1665      C1666   1.407       .  A
C1665      C1670   1.404       .  A
C1666      C1667   1.396       .  A
C1666      H1675   1.083       .  S
C1667      C1668   1.400       .  A
C1667      H1676   1.084       .  S
C1668      C1674   1.406       .  A
C1668      C1669   1.417       .  A
C1669      C1671   1.401       .  A
C1669      C1670   1.407       .  A
C1670      H1677   1.084       .  S
C1671      C1672   1.397       .  A
C1671      H1678   1.084       .  S
C1672      C1673   1.406       .  A
C1672      H1679   1.082       .  S
C1673      C1674   1.403       .  A
C1673      N3061   1.439   1_455  S
C1674      H3408   1.084       .  S
H1680      C3402   1.084       .  S
C1681      C1686   1.407       .  A
C1682      C1683   1.397       .  A
C1682      H1691   1.080       .  S
C1683      C1684   1.399       .  A
C1683      H1692   1.084       .  S
C1684      C1690   1.405       .  A
C1685      C1687   1.399       .  A
C1685      C1686   1.404       .  A
C1686      H1693   1.083       .  S
C1687      C1688   1.395       .  A
C1687      H1694   1.084       .  S
C1688      C1689   1.410       .  A
C1688      H1695   1.080   1_455  S
C1689      N3038   1.445   1_455  S
C1690      H3424   1.083       .  S
H1696      C3418   1.083       .  S
C1697      C1698   1.409       .  A
C1697      C1702   1.411       .  A
C1698      C1699   1.396       .  A
C1698      H1707   1.082       .  S
C1699      C1700   1.400       .  A
C1699      H1708   1.084       .  S
C1700      C1706   1.404       .  A
C1700      C1701   1.411       .  A
C1701      C1703   1.402       .  A
C1701      C1702   1.407       .  A
C1702      H1709   1.084       .  S
C1703      C1704   1.400       .  A
C1703      H1710   1.084       .  S
C1704      C1705   1.409       .  A
C1704      H1711   1.081       .  S
C1705      C1706   1.410       .  A
C1706      H1712   1.084       .  S
C1713      C1714   1.411       .  A
C1713      C1718   1.412       .  A
C1714      C1715   1.395       .  A
C1714      H1723   1.083       .  S
C1715      C1716   1.398       .  A
C1715      H1724   1.083       .  S
C1716      C1722   1.407       .  A
C1716      C1717   1.413       .  A
C1717      C1719   1.402       .  A
C1717      C1718   1.412       .  A
C1718      H1725   1.082       .  S
C1719      C1720   1.401       .  A
C1719      H1726   1.083       .  S
C1720      C1721   1.410       .  A
C1720      H1727   1.082       .  S
C1721      C1722   1.409       .  A
C1722      H1728   1.083       .  S
C1729      C1731   1.529       .  S
C1729      C1733   1.547       .  S
C1729      C1732   1.543       .  S
C1729      C2153   1.535       .  S
C1730      C1734   1.531       .  S
C1730      C1736   1.544       .  S
C1730      C1735   1.534       .  S
C1730      C2137   1.534       .  S
C1731      C1739   1.377       .  A
C1731      C2166   1.399   1_554  A
C1732      C1743   1.381       .  A
C1732      C2167   1.387   1_554  A
C1733      C1747   1.384       .  A
C1733      C2168   1.423   1_554  A
C1734      C2163   1.399       .  A
C1734      C1737   1.380       .  A
C1735      C2164   1.387       .  A
C1735      C1741   1.373       .  A
C1736      C2165   1.423       .  A
C1736      C1744   1.384       .  A
C1737      N1738   1.353       .  A
C1737      H1750   1.082       .  S
N1738      C2171   1.351       .  A
N1738      C1952   1.430       .  S
C1739      N2170   1.351       .  A
C1739      H1740   1.082       .  S
C1741      N2174   1.358       .  A
C1741      H1751   1.080       .  S
N1742      C2173   1.358       .  A
N1742      C1743   1.363   1_556  A
C1743      H1749   1.081       .  S
C1744      N1745   1.346       .  A
C1744      H1746   1.083       .  S
N1745      C2179   1.349       .  A
C1747      N2177   1.349       .  A
C1747      H1748   1.082       .  S
C1752      C1754   1.543       .  S
C1752      C1756   1.533       .  S
C1752      C1755   1.548       .  S
C1752      C2145   1.533       .  S
C1753      C1757   1.540       .  S
C1753      C1759   1.534       .  S
C1753      C1758   1.540       .  S
C1753      C2129   1.530       .  S
C1754      C1762   1.385       .  A
C1754      C1757   1.407       .  A
C1755      C1766   1.386       .  A
C1755      C1758   1.397       .  A
C1756      C1770   1.379       .  A
C1756      C1759   1.405       .  A
C1757      C1760   1.386       .  A
C1758      C1764   1.374       .  A
C1759      C1767   1.384       .  A
C1760      N1761   1.354       .  A
C1760      H1773   1.082       .  S
N1761      C1762   1.352       .  A
C1762      H1763   1.083       .  S
C1764      N1765   1.355       .  A
C1764      H1774   1.082       .  S
N1765      C1766   1.361       .  A
C1766      H1772   1.082       .  S
C1767      N1768   1.350       .  A
C1767      H1769   1.083       .  S
N1768      C1770   1.351       .  A
N1768      C1965   1.433       .  S
C1770      H1771   1.083       .  S
C1775      C1777   1.530       .  S
C1775      C1779   1.536       .  S
C1775      C1778   1.549       .  S
C1775      C2081   1.534       .  S
C1776      C1780   1.540       .  S
C1776      C1782   1.542       .  S
C1776      C1781   1.541       .  S
C1776      C2065   1.532       .  S
C1777      C1785   1.382       .  A
C1777      C2212   1.407   1_554  A
C1778      C1789   1.379       .  A
C1778      C2213   1.397   1_554  A
C1779      C1793   1.380       .  A
C1779      C2214   1.401   1_554  A
C1780      C2209   1.407       .  A
C1780      C1783   1.385       .  A
C1781      C2210   1.397       .  A
C1781      C1787   1.378       .  A
C1782      C2211   1.401       .  A
C1782      C1790   1.390       .  A
C1783      N1784   1.353       .  A
C1783      H1796   1.082       .  S
N1784      C2217   1.350       .  A
N1784      C1954   1.436       .  S
C1785      N2216   1.350       .  A
C1785      H1786   1.082       .  S
C1787      N2220   1.361       .  A
C1787      H1797   1.081       .  S
N1788      C2219   1.361       .  A
N1788      C1789   1.364   1_556  A
N1788      C2057   1.446       .  S
C1789      H1795   1.081       .  S
C1790      N1791   1.350       .  A
C1790      H1792   1.083       .  S
N1791      C2225   1.345       .  A
N1791      C1925   1.432       .  S
C1793      N2223   1.345       .  A
C1793      H1794   1.083       .  S
C1798      C1800   1.535       .  S
C1798      C1802   1.547       .  S
C1798      C1801   1.531       .  S
C1798      C2073   1.531       .  S
C1799      C1803   1.538       .  S
C1799      C1805   1.554       .  S
C1799      C1804   1.535       .  S
C1799      C2089   1.533       .  S
C1800      C1808   1.380       .  A
C1800      C1803   1.400       .  A
C1801      C1812   1.371       .  A
C1801      C1804   1.386       .  A
C1802      C1816   1.388       .  A
C1802      C1805   1.418       .  A
C1803      C1806   1.385       .  A
C1804      C1810   1.376       .  A
C1805      C1813   1.389       .  A
C1806      N1807   1.356       .  A
C1806      H1819   1.082       .  S
N1807      C1808   1.353       .  A
N1807      C1967   1.438       .  S
C1808      H1809   1.082       .  S
C1810      N1811   1.357       .  A
C1810      H1820   1.080       .  S
N1811      C1812   1.353       .  A
N1811      C2041   1.432       .  S
C1812      H1818   1.082       .  S
C1813      N1814   1.353       .  A
C1813      H1815   1.082       .  S
N1814      C1816   1.351       .  A
N1814      C1940   1.442       .  S
C1816      H1817   1.082       .  S
C1821      C1823   1.536       .  S
C1821      C1825   1.540       .  S
C1821      C1824   1.542       .  S
C1821      C2025   1.533       .  S
C1822      C1826   1.539       .  S
C1822      C1828   1.543       .  S
C1822      C1827   1.550       .  S
C1822      C2009   1.539       .  S
C1823      C1831   1.383       .  A
C1823      C2258   1.407   1_554  A
C1824      C1835   1.375       .  A
C1824      C2259   1.396   1_554  A
C1825      C1839   1.390       .  A
C1825      C2260   1.406   1_554  A
C1826      C2255   1.407       .  A
C1826      C1829   1.388       .  A
C1827      C2256   1.396       .  A
C1827      C1833   1.386       .  A
C1828      C2257   1.406       .  A
C1828      C1836   1.381       .  A
C1829      N1830   1.356       .  A
C1829      H1842   1.083       .  S
N1830      C2263   1.350       .  A
N1830      C1953   1.440       .  S
C1831      N2262   1.350       .  A
C1831      H1832   1.082       .  S
C1833      N2266   1.361       .  A
C1833      H1843   1.080       .  S
N1834      C2265   1.361   1_554  A
N1834      C1835   1.358       .  A
N1834      C2913   1.445       .  S
C1835      H1841   1.081       .  S
C1836      N1837   1.348       .  A
C1836      H1838   1.083       .  S
N1837      C2271   1.351       .  A
C1839      N2269   1.351       .  A
C1839      H1840   1.083       .  S
C1844      C1846   1.537       .  S
C1844      C1848   1.547       .  S
C1844      C1847   1.539       .  S
C1844      C2001   1.537       .  S
C1845      C1849   1.530       .  S
C1845      C1851   1.548       .  S
C1845      C1850   1.530       .  S
C1845      C2017   1.532       .  S
C1846      C1854   1.381       .  A
C1846      C1849   1.403       .  A
C1847      C1858   1.379       .  A
C1847      C1850   1.388       .  A
C1848      C1862   1.385       .  A
C1848      C1851   1.418       .  A
C1849      C1852   1.379       .  A
C1850      C1856   1.372       .  A
C1851      C1859   1.387       .  A
C1852      N1853   1.351       .  A
C1852      H1865   1.082       .  S
N1853      C1854   1.354       .  A
N1853      C1968   1.432       .  S
C1854      H1855   1.083       .  S
C1856      N1857   1.352       .  A
C1856      H1866   1.081       .  S
N1857      C1858   1.356       .  A
N1857      C2897   1.433       .  S
C1858      H1864   1.081       .  S
C1859      N1860   1.354       .  A
C1859      H1861   1.082       .  S
N1860      C1862   1.353       .  A
C1862      H1863   1.082       .  S
C1867      C1869   1.546       .  S
C1867      C1871   1.553       .  S
C1867      C1870   1.539       .  S
C1867      C1977   1.542       .  S
C1868      C1872   1.523       .  S
C1868      C1874   1.534       .  S
C1868      C1873   1.541       .  S
C1868      C1985   1.529       .  S
C1869      C1877   1.382       .  A
C1869      C2304   1.402       .  A
C1870      C1881   1.384       .  A
C1870      C2305   1.401       .  A
C1871      C1885   1.389       .  A
C1871      C2306   1.409       .  A
C1872      C2301   1.402   1_554  A
C1872      C1875   1.377       .  A
C1873      C2302   1.401   1_554  A
C1873      C1879   1.379       .  A
C1874      C2303   1.409   1_554  A
C1874      C1882   1.377       .  A
C1875      N2308   1.350       .  A
C1875      H1888   1.083       .  S
N1876      C2307   1.350       .  A
N1876      C1877   1.350       .  A
N1876      C2788   1.430       .  S
C1877      H1878   1.081       .  S
C1879      N1880   1.355   1_554  A
C1879      H1889   1.080       .  S
N1880      C2313   1.358       .  A
N1880      C2113   1.447       .  S
C1881      N2312   1.358       .  A
C1881      H1887   1.082       .  S
C1882      N2315   1.348       .  A
C1882      H1884   1.082       .  S
N1883      C2314   1.348       .  A
N1883      C1885   1.351       .  A
N1883      C1951   1.431       .  S
C1885      H1886   1.079       .  S
C1890      C1892   1.574       .  S
C1890      C1894   1.553       .  S
C1890      C1893   1.545       .  S
C1890      C1969   1.550       .  S
C1891      C1895   1.534       .  S
C1891      C1897   1.529       .  S
C1891      C1896   1.527       .  S
C1891      C1993   1.530       .  S
C1892      C1900   1.387       .  A
C1892      C1895   1.417       .  A
C1893      C1904   1.384       .  A
C1893      C1896   1.390       .  A
C1894      C1908   1.390       .  A
C1894      C1897   1.394       .  A
C1895      C1898   1.389       .  A
C1896      C1902   1.371       .  A
C1897      C1905   1.375       .  A
C1898      N1899   1.347       .  A
C1898      H1911   1.083       .  S
N1899      C1900   1.345       .  A
N1899      C1966   1.437       .  S
C1900      H1901   1.078       .  S
C1902      N1903   1.354       .  A
C1902      H1912   1.082       .  S
N1903      C1904   1.363       .  A
N1903      C2097   1.439       .  S
C1904      H1910   1.082       .  S
C1905      N1906   1.354       .  A
C1905      H1907   1.083       .  S
N1906      C1908   1.362       .  A
N1906      C2801   1.440       .  S
C1908      H1909   1.078       .  S
O1913     Ni1921   1.910       .  S
O1913      C2355   1.280       .  A
O1914     Ni1921   1.907       .  S
O1914      C2356   1.280       .  A
O1915     Ni1921   1.917       .  S
O1915      C2357   1.283       .  A
O1916     Ni1921   1.921       .  S
O1916      C2358   1.282   1_545  A
O1917     Ni1922   1.911       .  S
O1917      C1926   1.281   1_545  A
O1918     Ni1922   1.914       .  S
O1918      C1925   1.280       .  A
O1919     Ni1922   1.912       .  S
O1919      C1924   1.281       .  A
O1920     Ni1922   1.915       .  S
O1920      C1923   1.282       .  A
Ni1921    Ni2354   2.389   1_554  S
Ni1922    Ni2353   2.389       .  S
C1923      O2345   1.280       .  A
C1924      N2740   1.430   1_545  S
C1924      O2346   1.280       .  A
C1925      O2347   1.283       .  A
C1926      O2348   1.282   1_565  A
O1927     Ni1935   1.922       .  S
O1927      C1937   1.281       .  A
O1928     Ni1935   1.920       .  S
O1928      C1938   1.281       .  A
O1929     Ni1935   1.925       .  S
O1929      C1939   1.283       .  A
O1930     Ni1935   1.926       .  S
O1930      C1940   1.284       .  A
O1931     Ni1936   1.925       .  S
O1931      C1940   1.282       .  A
O1932     Ni1936   1.925       .  S
O1932      C1939   1.283       .  A
O1933     Ni1936   1.926       .  S
O1933      C1938   1.283       .  A
O1934     Ni1936   1.924       .  S
O1934      C1937   1.284       .  A
Ni1935    Ni1936   2.386       .  S
C1937      N2770   1.440   1_545  S
O1941     Ni1949   1.912       .  S
O1941      C2383   1.280       .  A
O1942     Ni1949   1.910       .  S
O1942      C2384   1.280       .  A
O1943     Ni1949   1.924       .  S
O1943      C2385   1.284       .  A
O1944     Ni1949   1.921       .  S
O1944      C2386   1.283       .  A
O1945     Ni1950   1.916       .  S
O1945      C1954   1.281       .  A
O1946     Ni1950   1.923       .  S
O1946      C1953   1.282       .  A
O1947     Ni1950   1.914       .  S
O1947      C1952   1.281       .  A
O1948     Ni1950   1.913       .  S
O1948      C1951   1.281       .  A
Ni1949    Ni2382   2.388   1_554  S
Ni1950    Ni2381   2.388       .  S
C1951      O2373   1.280       .  A
C1952      O2374   1.280       .  A
C1953      O2375   1.284       .  A
C1954      O2376   1.283       .  A
O1955     Ni1963   1.920       .  S
O1955      C1965   1.282       .  A
O1956     Ni1963   1.919       .  S
O1956      C1966   1.284       .  A
O1957     Ni1963   1.916       .  S
O1957      C1967   1.282       .  A
O1958     Ni1963   1.910       .  S
O1958      C1968   1.280       .  A
O1959     Ni1964   1.918       .  S
O1959      C1968   1.283       .  A
O1960     Ni1964   1.924       .  S
O1960      C1967   1.283       .  A
O1961     Ni1964   1.917       .  S
O1961      C1966   1.280       .  A
O1962     Ni1964   1.909       .  S
O1962      C1965   1.280       .  A
Ni1963    Ni1964   2.388       .  S
C1969      C1970   1.407       .  A
C1969      C1974   1.417       .  A
C1970      C1971   1.392       .  A
C1970      H1979   1.076       .  S
C1971      C1972   1.394       .  A
C1971      H1980   1.082       .  S
C1972      C1978   1.402       .  A
C1972      C1973   1.408       .  A
C1973      C1975   1.402       .  A
C1973      C1974   1.417       .  A
C1974      H1981   1.076       .  S
C1975      C1976   1.405       .  A
C1975      H1982   1.082       .  S
C1976      C1977   1.415       .  A
C1976      H1983   1.082       .  S
C1977      C1978   1.406       .  A
C1978      H1984   1.072       .  S
C1985      C1986   1.410       .  A
C1985      C1990   1.409       .  A
C1986      C1987   1.396       .  A
C1986      H1995   1.082       .  S
C1987      C1988   1.400       .  A
C1987      H1996   1.083       .  S
C1988      C1994   1.403       .  A
C1988      C1989   1.412       .  A
C1989      C1991   1.400       .  A
C1989      C1990   1.405       .  A
C1990      H1997   1.084       .  S
C1991      C1992   1.398       .  A
C1991      H1998   1.084       .  S
C1992      C1993   1.411       .  A
C1992      H1999   1.081       .  S
C1993      C1994   1.408       .  A
C1994      H2000   1.084       .  S
C2001      C2002   1.412       .  A
C2001      C2006   1.410       .  A
C2002      C2003   1.397       .  A
C2002      H2011   1.079       .  S
C2003      C2004   1.398       .  A
C2003      H2012   1.083       .  S
C2004      C2010   1.410       .  A
C2004      C2005   1.413       .  A
C2005      C2007   1.400       .  A
C2005      C2006   1.412       .  A
C2006      H2013   1.083       .  S
C2007      C2008   1.399       .  A
C2007      H2014   1.084       .  S
C2008      C2009   1.413       .  A
C2008      H2015   1.083       .  S
C2009      C2010   1.408       .  A
C2010      H2016   1.079       .  S
C2017      C2018   1.406       .  A
C2017      C2022   1.413       .  A
C2018      C2019   1.401       .  A
C2018      H2027   1.082       .  S
C2019      C2020   1.405       .  A
C2019      H2028   1.083       .  S
C2020      C2026   1.406       .  A
C2020      C2021   1.409       .  A
C2021      C2023   1.402       .  A
C2021      C2022   1.403       .  A
C2022      H2029   1.083       .  S
C2023      C2024   1.397       .  A
C2023      H2030   1.084       .  S
C2024      C2025   1.408       .  A
C2024      H2031   1.082       .  S
C2025      C2026   1.414       .  A
C2026      H2032   1.082       .  S
C2033      C2898   1.405       .  A
C2033      C2038   1.403       .  A
C2033      N2721   1.433   1_545  S
C2034      C2897   1.405       .  A
C2034      C2899   1.391       .  A
C2034      H2043   1.083       .  S
C2035      C2898   1.391       .  A
C2035      C2036   1.398       .  A
C2035      H2908   1.083       .  S
C2036      C2042   1.396       .  A
C2036      C2037   1.415       .  A
C2037      C2039   1.399       .  A
C2037      C2038   1.397       .  A
C2038      H2045   1.083       .  S
C2039      C2040   1.393       .  A
C2039      H2046   1.084       .  S
C2040      C2041   1.407       .  A
C2040      H2047   1.082       .  S
C2041      C2042   1.400       .  A
C2042      H2048   1.084       .  S
H2044      C2899   1.083       .  S
C2049      C2914   1.407       .  A
C2049      C2486   1.409   1_554  A
C2049      N2698   1.445   1_545  S
C2050      C2913   1.406       .  A
C2050      C2915   1.397       .  A
C2050      H2059   1.082       .  S
C2051      C2914   1.397       .  A
C2051      C2052   1.401       .  A
C2051      H2924   1.083       .  S
C2052      C2058   1.405       .  A
C2052      C2053   1.413   1_554  A
C2053      C2487   1.404       .  A
C2053      C2486   1.409       .  A
C2054      C2481   1.409       .  A
C2054      C2485   1.409       .  A
C2054      H2061   1.083   1_545  S
C2055      C2485   1.404       .  A
C2055      C2056   1.401       .  A
C2055      H2062   1.084       .  S
C2056      C2489   1.408       .  A
C2056      H2063   1.082       .  S
C2057      C2488   1.408       .  A
C2057      C2058   1.407   1_556  A
C2058      H2064   1.083       .  S
H2060      C2915   1.083       .  S
C2065      C2066   1.413       .  A
C2065      C2070   1.408       .  A
C2066      C2067   1.394       .  A
C2066      H2075   1.081       .  S
C2067      C2068   1.397       .  A
C2067      H2076   1.084       .  S
C2068      C2074   1.405       .  A
C2068      C2069   1.413       .  A
C2069      C2071   1.398       .  A
C2069      C2070   1.407       .  A
C2070      H2077   1.083       .  S
C2071      C2072   1.396       .  A
C2071      H2078   1.084       .  S
C2072      C2073   1.412       .  A
C2072      H2079   1.082       .  S
C2073      C2074   1.406       .  A
C2074      H2080   1.082       .  S
C2081      C2082   1.414       .  A
C2081      C2086   1.410       .  A
C2082      C2083   1.391       .  A
C2082      H2091   1.082       .  S
C2083      C2084   1.395       .  A
C2083      H2092   1.084       .  S
C2084      C2090   1.404       .  A
C2084      C2085   1.413       .  A
C2085      C2087   1.400       .  A
C2085      C2086   1.412       .  A
C2086      H2093   1.082       .  S
C2087      C2088   1.400       .  A
C2087      H2094   1.083       .  S
C2088      C2089   1.412       .  A
C2088      H2095   1.081       .  S
C2089      C2090   1.406       .  A
C2090      H2096   1.083       .  S
C2097      C2098   1.407       .  A
C2097      C2102   1.404       .  A
C2098      C2099   1.396       .  A
C2098      H2107   1.083       .  S
C2099      C2100   1.400       .  A
C2099      H2108   1.084       .  S
C2100      C2106   1.406       .  A
C2100      C2101   1.417       .  A
C2101      C2103   1.401       .  A
C2101      C2102   1.407       .  A
C2102      H2109   1.084       .  S
C2103      C2104   1.398       .  A
C2103      H2110   1.084       .  S
C2104      C2105   1.406       .  A
C2104      H2111   1.082       .  S
C2105      C2106   1.403       .  A
C2113      C2546   1.410   1_556  A
C2113      C2118   1.407       .  A
C2114      C2545   1.410       .  A
C2114      C2115   1.397       .  A
C2114      H2123   1.080       .  S
C2115      C2116   1.399       .  A
C2115      H2124   1.084       .  S
C2116      C2122   1.405       .  A
C2116      C2549   1.413       .  A
C2117      C2548   1.413   1_556  A
C2117      C2119   1.399       .  A
C2117      C2118   1.404       .  A
C2118      H2125   1.083       .  S
C2119      C2120   1.395       .  A
C2119      H2126   1.084       .  S
C2120      C2121   1.410       .  A
C2120      H2127   1.080       .  S
C2121      C2554   1.407   1_556  A
C2122      C2553   1.407       .  A
C2129      C2130   1.409       .  A
C2129      C2134   1.412       .  A
C2130      C2131   1.396       .  A
C2130      H2139   1.082       .  S
C2131      C2132   1.400       .  A
C2131      H2140   1.084       .  S
C2132      C2138   1.404       .  A
C2132      C2133   1.411       .  A
C2133      C2135   1.403       .  A
C2133      C2134   1.407       .  A
C2134      H2141   1.084       .  S
C2135      C2136   1.400       .  A
C2135      H2142   1.084       .  S
C2136      C2137   1.409       .  A
C2136      H2143   1.081       .  S
C2137      C2138   1.410       .  A
C2138      H2144   1.084       .  S
C2145      C2146   1.411       .  A
C2145      C2150   1.411       .  A
C2146      C2147   1.396       .  A
C2146      H2155   1.083       .  S
C2147      C2148   1.399       .  A
C2147      H2156   1.083       .  S
C2148      C2154   1.407       .  A
C2148      C2149   1.413       .  A
C2149      C2151   1.402       .  A
C2149      C2150   1.412       .  A
C2150      H2157   1.082       .  S
C2151      C2152   1.401       .  A
C2151      H2158   1.083       .  S
C2152      C2153   1.410       .  A
C2152      H2159   1.082       .  S
C2153      C2154   1.409       .  A
C2154      H2160   1.083       .  S
C2161      C2163   1.529       .  S
C2161      C2165   1.547       .  S
C2161      C2164   1.543       .  S
C2161      C2585   1.535       .  S
C2162      C2166   1.531       .  S
C2162      C2168   1.544       .  S
C2162      C2167   1.534       .  S
C2162      C2569   1.534       .  S
C2163      C2171   1.377       .  A
C2164      C2175   1.381       .  A
C2165      C2179   1.384       .  A
C2166      C2169   1.380       .  A
C2167      C2173   1.373       .  A
C2168      C2176   1.384       .  A
C2169      N2170   1.353   1_556  A
C2169      H2182   1.082       .  S
N2170      C2384   1.430       .  S
C2171      H2172   1.082       .  S
C2173      H2183   1.080       .  S
N2174      C2175   1.363       .  A
C2175      H2181   1.081       .  S
C2176      N2177   1.346   1_556  A
C2176      H2178   1.083       .  S
C2179      H2180   1.082       .  S
C2184      C2186   1.543       .  S
C2184      C2188   1.533       .  S
C2184      C2187   1.548       .  S
C2184      C2577   1.533       .  S
C2185      C2189   1.540       .  S
C2185      C2191   1.534       .  S
C2185      C2190   1.540       .  S
C2185      C2561   1.530       .  S
C2186      C2194   1.385       .  A
C2186      C2189   1.407       .  A
C2187      C2198   1.386       .  A
C2187      C2190   1.397       .  A
C2188      C2202   1.379       .  A
C2188      C2191   1.405       .  A
C2189      C2192   1.386       .  A
C2190      C2196   1.374       .  A
C2191      C2199   1.384       .  A
C2192      N2193   1.354       .  A
C2192      H2205   1.082       .  S
N2193      C2194   1.352       .  A
C2194      H2195   1.083       .  S
C2196      N2197   1.355       .  A
C2196      H2206   1.082       .  S
N2197      C2198   1.361       .  A
C2198      H2204   1.082       .  S
C2199      N2200   1.350       .  A
C2199      H2201   1.083       .  S
N2200      C2202   1.351       .  A
N2200      C2397   1.433       .  S
C2202      H2203   1.083       .  S
C2207      C2209   1.530       .  S
C2207      C2211   1.536       .  S
C2207      C2210   1.549       .  S
C2207      C2513   1.534       .  S
C2208      C2212   1.540       .  S
C2208      C2214   1.542       .  S
C2208      C2213   1.541       .  S
C2208      C2497   1.532       .  S
C2209      C2217   1.382       .  A
C2210      C2221   1.379       .  A
C2211      C2225   1.380       .  A
C2212      C2215   1.385       .  A
C2213      C2219   1.378       .  A
C2214      C2222   1.390       .  A
C2215      N2216   1.353   1_556  A
C2215      H2228   1.082       .  S
N2216      C2386   1.436       .  S
C2217      H2218   1.082       .  S
C2219      H2229   1.081       .  S
N2220      C2221   1.364       .  A
N2220      C2489   1.446       .  S
C2221      H2227   1.081       .  S
C2222      N2223   1.350   1_556  A
C2222      H2224   1.083       .  S
N2223      C2357   1.432       .  S
C2225      H2226   1.083       .  S
C2230      C2232   1.535       .  S
C2230      C2234   1.547       .  S
C2230      C2233   1.531       .  S
C2230      C2505   1.531       .  S
C2231      C2235   1.538       .  S
C2231      C2237   1.554       .  S
C2231      C2236   1.535       .  S
C2231      C2521   1.533       .  S
C2232      C2240   1.380       .  A
C2232      C2235   1.400       .  A
C2233      C2244   1.371       .  A
C2233      C2236   1.386       .  A
C2234      C2248   1.388       .  A
C2234      C2237   1.418       .  A
C2235      C2238   1.385       .  A
C2236      C2242   1.376       .  A
C2237      C2245   1.389       .  A
C2238      N2239   1.356       .  A
C2238      H2251   1.082       .  S
N2239      C2240   1.353       .  A
N2239      C2399   1.438       .  S
C2240      H2241   1.082       .  S
C2242      N2243   1.357       .  A
C2242      H2252   1.080       .  S
N2243      C2244   1.353       .  A
N2243      C2473   1.432       .  S
C2244      H2250   1.082       .  S
C2245      N2246   1.353       .  A
C2245      H2247   1.082       .  S
N2246      C2248   1.351       .  A
N2246      C2372   1.442       .  S
C2248      H2249   1.082       .  S
C2253      C2255   1.536       .  S
C2253      C2257   1.540       .  S
C2253      C2256   1.542       .  S
C2253      C2457   1.533       .  S
C2254      C2258   1.539       .  S
C2254      C2260   1.543       .  S
C2254      C2259   1.550       .  S
C2254      C2441   1.539       .  S
C2255      C2263   1.383       .  A
C2256      C2267   1.375       .  A
C2257      C2271   1.390       .  A
C2258      C2261   1.388       .  A
C2259      C2265   1.386       .  A
C2260      C2268   1.381       .  A
C2261      N2262   1.356   1_556  A
C2261      H2274   1.083       .  S
N2262      C2385   1.440       .  S
C2263      H2264   1.082       .  S
C2265      H2275   1.080       .  S
N2266      C2267   1.358       .  A
N2266      C3345   1.445       .  S
C2267      H2273   1.081       .  S
C2268      N2269   1.348   1_556  A
C2268      H2270   1.083       .  S
C2271      H2272   1.083       .  S
C2276      C2278   1.537       .  S
C2276      C2280   1.547       .  S
C2276      C2279   1.539       .  S
C2276      C2433   1.537       .  S
C2277      C2281   1.530       .  S
C2277      C2283   1.548       .  S
C2277      C2282   1.530       .  S
C2277      C2449   1.532       .  S
C2278      C2286   1.381       .  A
C2278      C2281   1.403       .  A
C2279      C2290   1.378       .  A
C2279      C2282   1.388       .  A
C2280      C2294   1.385       .  A
C2280      C2283   1.418       .  A
C2281      C2284   1.379       .  A
C2282      C2288   1.372       .  A
C2283      C2291   1.387       .  A
C2284      N2285   1.351       .  A
C2284      H2297   1.082       .  S
N2285      C2286   1.354       .  A
N2285      C2400   1.432       .  S
C2286      H2287   1.083       .  S
C2288      N2289   1.352       .  A
C2288      H2298   1.081       .  S
N2289      C2290   1.356       .  A
N2289      C3329   1.433       .  S
C2290      H2296   1.081       .  S
C2291      N2292   1.354       .  A
C2291      H2293   1.082       .  S
N2292      C2294   1.353       .  A
C2294      H2295   1.082       .  S
C2299      C2301   1.546       .  S
C2299      C2303   1.553       .  S
C2299      C2302   1.539       .  S
C2299      C2409   1.541       .  S
C2300      C2304   1.523       .  S
C2300      C2306   1.534       .  S
C2300      C2305   1.541       .  S
C2300      C2417   1.529       .  S
C2301      C2309   1.382       .  A
C2302      C2313   1.384       .  A
C2303      C2317   1.389       .  A
C2304      C2307   1.377       .  A
C2305      C2311   1.379       .  A
C2306      C2314   1.377       .  A
C2307      H2320   1.083       .  S
N2308      C2309   1.350   1_554  A
N2308      C3220   1.430       .  S
C2309      H2310   1.081       .  S
C2311      N2312   1.355       .  A
C2311      H2321   1.080       .  S
N2312      C2545   1.447       .  S
C2313      H2319   1.082       .  S
C2314      H2316   1.082       .  S
N2315      C2317   1.351   1_554  A
N2315      C2383   1.431       .  S
C2317      H2318   1.079       .  S
C2322      C2324   1.574       .  S
C2322      C2326   1.553       .  S
C2322      C2325   1.545       .  S
C2322      C2401   1.550       .  S
C2323      C2327   1.534       .  S
C2323      C2329   1.529       .  S
C2323      C2328   1.527       .  S
C2323      C2425   1.530       .  S
C2324      C2332   1.387       .  A
C2324      C2327   1.417       .  A
C2325      C2336   1.384       .  A
C2325      C2328   1.390       .  A
C2326      C2340   1.391       .  A
C2326      C2329   1.394       .  A
C2327      C2330   1.389       .  A
C2328      C2334   1.371       .  A
C2329      C2337   1.375       .  A
C2330      N2331   1.347       .  A
C2330      H2343   1.083       .  S
N2331      C2332   1.345       .  A
N2331      C2398   1.437       .  S
C2332      H2333   1.078       .  S
C2334      N2335   1.354       .  A
C2334      H2344   1.082       .  S
N2335      C2336   1.363       .  A
N2335      C2529   1.439       .  S
C2336      H2342   1.082       .  S
C2337      N2338   1.354       .  A
C2337      H2339   1.083       .  S
N2338      C2340   1.362       .  A
N2338      C3233   1.440       .  S
C2340      H2341   1.078       .  S
O2345     Ni2353   1.910       .  S
O2346     Ni2353   1.907       .  S
O2347     Ni2353   1.917       .  S
O2348     Ni2353   1.921       .  S
O2349     Ni2354   1.911       .  S
O2349      C2358   1.281   1_546  A
O2350     Ni2354   1.914       .  S
O2350      C2357   1.280   1_556  A
O2351     Ni2354   1.912       .  S
O2351      C2356   1.281   1_556  A
O2352     Ni2354   1.915       .  S
O2352      C2355   1.282   1_556  A
C2356      N3172   1.430   1_545  S
O2359     Ni2367   1.922       .  S
O2359      C2369   1.281       .  A
O2360     Ni2367   1.920       .  S
O2360      C2370   1.281       .  A
O2361     Ni2367   1.925       .  S
O2361      C2371   1.283       .  A
O2362     Ni2367   1.926       .  S
O2362      C2372   1.284       .  A
O2363     Ni2368   1.925       .  S
O2363      C2372   1.282       .  A
O2364     Ni2368   1.925       .  S
O2364      C2371   1.283       .  A
O2365     Ni2368   1.926       .  S
O2365      C2370   1.283       .  A
O2366     Ni2368   1.924       .  S
O2366      C2369   1.284       .  A
Ni2367    Ni2368   2.386       .  S
C2369      N3202   1.440   1_545  S
O2373     Ni2381   1.912       .  S
O2374     Ni2381   1.910       .  S
O2375     Ni2381   1.924       .  S
O2376     Ni2381   1.921       .  S
O2377     Ni2382   1.916       .  S
O2377      C2386   1.281   1_556  A
O2378     Ni2382   1.923       .  S
O2378      C2385   1.282   1_556  A
O2379     Ni2382   1.914       .  S
O2379      C2384   1.281   1_556  A
O2380     Ni2382   1.913       .  S
O2380      C2383   1.281   1_556  A
O2387     Ni2395   1.920       .  S
O2387      C2397   1.282       .  A
O2388     Ni2395   1.919       .  S
O2388      C2398   1.284       .  A
O2389     Ni2395   1.916       .  S
O2389      C2399   1.282       .  A
O2390     Ni2395   1.910       .  S
O2390      C2400   1.280       .  A
O2391     Ni2396   1.918       .  S
O2391      C2400   1.283       .  A
O2392     Ni2396   1.924       .  S
O2392      C2399   1.283       .  A
O2393     Ni2396   1.917       .  S
O2393      C2398   1.280       .  A
O2394     Ni2396   1.909       .  S
O2394      C2397   1.280       .  A
Ni2395    Ni2396   2.388       .  S
C2401      C2402   1.407       .  A
C2401      C2406   1.417       .  A
C2402      C2403   1.392       .  A
C2402      H2411   1.076       .  S
C2403      C2404   1.394       .  A
C2403      H2412   1.082       .  S
C2404      C2410   1.402       .  A
C2404      C2405   1.408       .  A
C2405      C2407   1.402       .  A
C2405      C2406   1.417       .  A
C2406      H2413   1.076       .  S
C2407      C2408   1.405       .  A
C2407      H2414   1.082       .  S
C2408      C2409   1.415       .  A
C2408      H2415   1.082       .  S
C2409      C2410   1.406       .  A
C2410      H2416   1.072       .  S
C2417      C2418   1.410       .  A
C2417      C2422   1.409       .  A
C2418      C2419   1.396       .  A
C2418      H2427   1.082       .  S
C2419      C2420   1.400       .  A
C2419      H2428   1.083       .  S
C2420      C2426   1.403       .  A
C2420      C2421   1.412       .  A
C2421      C2423   1.400       .  A
C2421      C2422   1.405       .  A
C2422      H2429   1.084       .  S
C2423      C2424   1.398       .  A
C2423      H2430   1.084       .  S
C2424      C2425   1.411       .  A
C2424      H2431   1.081       .  S
C2425      C2426   1.408       .  A
C2426      H2432   1.084       .  S
C2433      C2434   1.412       .  A
C2433      C2438   1.410       .  A
C2434      C2435   1.397       .  A
C2434      H2443   1.079       .  S
C2435      C2436   1.398       .  A
C2435      H2444   1.083       .  S
C2436      C2442   1.410       .  A
C2436      C2437   1.413       .  A
C2437      C2439   1.400       .  A
C2437      C2438   1.412       .  A
C2438      H2445   1.083       .  S
C2439      C2440   1.399       .  A
C2439      H2446   1.084       .  S
C2440      C2441   1.413       .  A
C2440      H2447   1.083       .  S
C2441      C2442   1.408       .  A
C2442      H2448   1.079       .  S
C2449      C2450   1.406       .  A
C2449      C2454   1.413       .  A
C2450      C2451   1.401       .  A
C2450      H2459   1.082       .  S
C2451      C2452   1.405       .  A
C2451      H2460   1.083       .  S
C2452      C2458   1.406       .  A
C2452      C2453   1.409       .  A
C2453      C2455   1.402       .  A
C2453      C2454   1.403       .  A
C2454      H2461   1.083       .  S
C2455      C2456   1.397       .  A
C2455      H2462   1.084       .  S
C2456      C2457   1.408       .  A
C2456      H2463   1.082       .  S
C2457      C2458   1.414       .  A
C2458      H2464   1.082       .  S
C2465      C3330   1.405       .  A
C2465      C2470   1.403       .  A
C2465      N3153   1.433   1_545  S
C2466      C3329   1.405       .  A
C2466      C3331   1.391       .  A
C2466      H2475   1.083       .  S
C2467      C3330   1.391       .  A
C2467      C2468   1.398       .  A
C2467      H3340   1.083       .  S
C2468      C2474   1.396       .  A
C2468      C2469   1.415       .  A
C2469      C2471   1.399       .  A
C2469      C2470   1.397       .  A
C2470      H2477   1.083       .  S
C2471      C2472   1.393       .  A
C2471      H2478   1.084       .  S
C2472      C2473   1.407       .  A
C2472      H2479   1.082       .  S
C2473      C2474   1.400       .  A
C2474      H2480   1.084       .  S
H2476      C3331   1.083       .  S
C2481      C3346   1.407       .  A
C2481      N3130   1.445   1_545  S
C2482      C3345   1.406       .  A
C2482      C3347   1.397       .  A
C2482      H2491   1.082       .  S
C2483      C3346   1.397       .  A
C2483      C2484   1.401       .  A
C2483      H3356   1.083       .  S
C2484      C2490   1.405       .  A
C2484      C2485   1.413       .  A
C2486      H2493   1.083   1_545  S
C2487      C2488   1.401       .  A
C2487      H2494   1.084       .  S
C2488      H2495   1.082       .  S
C2489      C2490   1.407       .  A
C2490      H2496   1.083       .  S
H2492      C3347   1.083       .  S
C2497      C2498   1.413       .  A
C2497      C2502   1.408       .  A
C2498      C2499   1.394       .  A
C2498      H2507   1.081       .  S
C2499      C2500   1.397       .  A
C2499      H2508   1.084       .  S
C2500      C2506   1.405       .  A
C2500      C2501   1.413       .  A
C2501      C2503   1.398       .  A
C2501      C2502   1.407       .  A
C2502      H2509   1.083       .  S
C2503      C2504   1.396       .  A
C2503      H2510   1.084       .  S
C2504      C2505   1.412       .  A
C2504      H2511   1.082       .  S
C2505      C2506   1.406       .  A
C2506      H2512   1.082       .  S
C2513      C2514   1.414       .  A
C2513      C2518   1.410       .  A
C2514      C2515   1.391       .  A
C2514      H2523   1.082       .  S
C2515      C2516   1.395       .  A
C2515      H2524   1.084       .  S
C2516      C2522   1.404       .  A
C2516      C2517   1.413       .  A
C2517      C2519   1.400       .  A
C2517      C2518   1.412       .  A
C2518      H2525   1.082       .  S
C2519      C2520   1.400       .  A
C2519      H2526   1.083       .  S
C2520      C2521   1.412       .  A
C2520      H2527   1.081       .  S
C2521      C2522   1.406       .  A
C2522      H2528   1.083       .  S
C2529      C2530   1.407       .  A
C2529      C2534   1.404       .  A
C2530      C2531   1.396       .  A
C2530      H2539   1.083       .  S
C2531      C2532   1.400       .  A
C2531      H2540   1.084       .  S
C2532      C2538   1.406       .  A
C2532      C2533   1.417       .  A
C2533      C2535   1.401       .  A
C2533      C2534   1.407       .  A
C2534      H2541   1.084       .  S
C2535      C2536   1.398       .  A
C2535      H2542   1.084       .  S
C2536      C2537   1.406       .  A
C2536      H2543   1.082       .  S
C2537      C2538   1.403       .  A
C2545      C2550   1.407       .  A
C2546      C2547   1.397       .  A
C2546      H2555   1.080       .  S
C2547      C2548   1.399       .  A
C2547      H2556   1.084       .  S
C2548      C2554   1.405       .  A
C2549      C2551   1.399       .  A
C2549      C2550   1.404       .  A
C2550      H2557   1.083       .  S
C2551      C2552   1.395       .  A
C2551      H2558   1.084       .  S
C2552      C2553   1.410       .  A
C2552      H2559   1.080       .  S
C2561      C2562   1.409       .  A
C2561      C2566   1.412       .  A
C2562      C2563   1.396       .  A
C2562      H2571   1.082       .  S
C2563      C2564   1.400       .  A
C2563      H2572   1.084       .  S
C2564      C2570   1.404       .  A
C2564      C2565   1.411       .  A
C2565      C2567   1.403       .  A
C2565      C2566   1.407       .  A
C2566      H2573   1.084       .  S
C2567      C2568   1.400       .  A
C2567      H2574   1.084       .  S
C2568      C2569   1.409       .  A
C2568      H2575   1.081       .  S
C2569      C2570   1.410       .  A
C2570      H2576   1.084       .  S
C2577      C2578   1.411       .  A
C2577      C2582   1.411       .  A
C2578      C2579   1.396       .  A
C2578      H2587   1.083       .  S
C2579      C2580   1.399       .  A
C2579      H2588   1.083       .  S
C2580      C2586   1.407       .  A
C2580      C2581   1.413       .  A
C2581      C2583   1.402       .  A
C2581      C2582   1.412       .  A
C2582      H2589   1.082       .  S
C2583      C2584   1.401       .  A
C2583      H2590   1.083       .  S
C2584      C2585   1.410       .  A
C2584      H2591   1.082       .  S
C2585      C2586   1.409       .  A
C2586      H2592   1.083       .  S
C2593      C2595   1.529       .  S
C2593      C2597   1.547       .  S
C2593      C2596   1.543       .  S
C2593      C3017   1.535       .  S
C2594      C2598   1.532       .  S
C2594      C2600   1.545       .  S
C2594      C2599   1.535       .  S
C2594      C3001   1.534       .  S
C2595      C2603   1.376       .  A
C2595      C3030   1.399   1_554  A
C2596      C2607   1.380       .  A
C2596      C3031   1.387   1_554  A
C2597      C2611   1.384       .  A
C2597      C3032   1.423   1_554  A
C2598      C3027   1.399       .  A
C2598      C2601   1.380       .  A
C2599      C3028   1.387       .  A
C2599      C2605   1.373       .  A
C2600      C3029   1.423       .  A
C2600      C2608   1.384       .  A
C2601      N2602   1.354       .  A
C2601      H2614   1.082       .  S
N2602      C3035   1.351       .  A
N2602      C2816   1.430       .  S
C2603      N3034   1.351       .  A
C2603      H2604   1.082       .  S
C2605      N3038   1.358       .  A
C2605      H2615   1.080       .  S
N2606      C3037   1.358       .  A
N2606      C2607   1.362   1_556  A
C2607      H2613   1.081       .  S
C2608      N2609   1.347       .  A
C2608      H2610   1.083       .  S
N2609      C3043   1.349       .  A
C2611      N3041   1.349       .  A
C2611      H2612   1.082       .  S
C2616      C2618   1.544       .  S
C2616      C2620   1.533       .  S
C2616      C2619   1.548       .  S
C2616      C3009   1.533       .  S
C2617      C2621   1.540       .  S
C2617      C2623   1.533       .  S
C2617      C2622   1.539       .  S
C2617      C2993   1.530       .  S
C2618      C2626   1.385       .  A
C2618      C2621   1.406       .  A
C2619      C2630   1.386       .  A
C2619      C2622   1.397       .  A
C2620      C2634   1.379       .  A
C2620      C2623   1.405       .  A
C2621      C2624   1.385       .  A
C2622      C2628   1.373       .  A
C2623      C2631   1.384       .  A
C2624      N2625   1.353       .  A
C2624      H2637   1.082       .  S
N2625      C2626   1.352       .  A
C2626      H2627   1.083       .  S
C2628      N2629   1.355       .  A
C2628      H2638   1.082       .  S
N2629      C2630   1.361       .  A
C2630      H2636   1.082       .  S
C2631      N2632   1.350       .  A
C2631      H2633   1.083       .  S
N2632      C2634   1.351       .  A
N2632      C2829   1.432       .  S
C2634      H2635   1.083       .  S
C2639      C2641   1.530       .  S
C2639      C2643   1.535       .  S
C2639      C2642   1.549       .  S
C2639      C2945   1.534       .  S
C2640      C2644   1.540       .  S
C2640      C2646   1.542       .  S
C2640      C2645   1.541       .  S
C2640      C2929   1.532       .  S
C2641      C2649   1.381       .  A
C2641      C3076   1.407   1_554  A
C2642      C2653   1.379       .  A
C2642      C3077   1.397   1_554  A
C2643      C2657   1.380       .  A
C2643      C3078   1.401   1_554  A
C2644      C3073   1.407       .  A
C2644      C2647   1.385       .  A
C2645      C3074   1.397       .  A
C2645      C2651   1.378       .  A
C2646      C3075   1.401       .  A
C2646      C2654   1.390       .  A
C2647      N2648   1.353       .  A
C2647      H2660   1.082       .  S
N2648      C3081   1.350       .  A
N2648      C2818   1.436       .  S
C2649      N3080   1.350       .  A
C2649      H2650   1.082       .  S
C2651      N3084   1.361       .  A
C2651      H2661   1.081       .  S
N2652      C3083   1.361       .  A
N2652      C2653   1.363   1_556  A
N2652      C2921   1.446       .  S
C2653      H2659   1.081       .  S
C2654      N2655   1.351       .  A
C2654      H2656   1.083       .  S
N2655      C3089   1.345       .  A
N2655      C2789   1.433       .  S
C2657      N3087   1.345       .  A
C2657      H2658   1.083       .  S
C2662      C2664   1.535       .  S
C2662      C2666   1.547       .  S
C2662      C2665   1.531       .  S
C2662      C2937   1.531       .  S
C2663      C2667   1.538       .  S
C2663      C2669   1.554       .  S
C2663      C2668   1.534       .  S
C2663      C2953   1.533       .  S
C2664      C2672   1.380       .  A
C2664      C2667   1.401       .  A
C2665      C2676   1.371       .  A
C2665      C2668   1.386       .  A
C2666      C2680   1.389       .  A
C2666      C2669   1.418       .  A
C2667      C2670   1.386       .  A
C2668      C2674   1.376       .  A
C2669      C2677   1.389       .  A
C2670      N2671   1.356       .  A
C2670      H2683   1.082       .  S
N2671      C2672   1.353       .  A
N2671      C2831   1.438       .  S
C2672      H2673   1.082       .  S
C2674      N2675   1.357       .  A
C2674      H2684   1.080       .  S
N2675      C2676   1.353       .  A
N2675      C2905   1.432       .  S
C2676      H2682   1.082       .  S
C2677      N2678   1.353       .  A
C2677      H2679   1.082       .  S
N2678      C2680   1.351       .  A
N2678      C2804   1.442       .  S
C2680      H2681   1.082       .  S
C2685      C2687   1.536       .  S
C2685      C2689   1.540       .  S
C2685      C2688   1.542       .  S
C2685      C2889   1.533       .  S
C2686      C2690   1.539       .  S
C2686      C2692   1.543       .  S
C2686      C2691   1.550       .  S
C2686      C2873   1.539       .  S
C2687      C2695   1.383       .  A
C2687      C3122   1.407   1_554  A
C2688      C2699   1.375       .  A
C2688      C3123   1.396   1_554  A
C2689      C2703   1.390       .  A
C2689      C3124   1.406   1_554  A
C2690      C3119   1.407       .  A
C2690      C2693   1.388       .  A
C2691      C3120   1.396       .  A
C2691      C2697   1.386       .  A
C2692      C3121   1.406       .  A
C2692      C2700   1.381       .  A
C2693      N2694   1.356       .  A
C2693      H2706   1.083       .  S
N2694      C3127   1.350       .  A
N2694      C2817   1.440       .  S
C2695      N3126   1.350       .  A
C2695      H2696   1.082       .  S
C2697      N3130   1.361       .  A
C2697      H2707   1.080       .  S
N2698      C3129   1.361   1_554  A
N2698      C2699   1.358       .  A
C2699      H2705   1.081       .  S
C2700      N2701   1.348       .  A
C2700      H2702   1.083       .  S
N2701      C3135   1.351       .  A
C2703      N3133   1.351       .  A
C2703      H2704   1.083       .  S
C2708      C2710   1.537       .  S
C2708      C2712   1.547       .  S
C2708      C2711   1.539       .  S
C2708      C2865   1.536       .  S
C2709      C2713   1.530       .  S
C2709      C2715   1.548       .  S
C2709      C2714   1.530       .  S
C2709      C2881   1.532       .  S
C2710      C2718   1.381       .  A
C2710      C2713   1.403       .  A
C2711      C2722   1.379       .  A
C2711      C2714   1.388       .  A
C2712      C2726   1.385       .  A
C2712      C2715   1.418       .  A
C2713      C2716   1.378       .  A
C2714      C2720   1.372       .  A
C2715      C2723   1.387       .  A
C2716      N2717   1.351       .  A
C2716      H2729   1.082       .  S
N2717      C2718   1.354       .  A
N2717      C2832   1.432       .  S
C2718      H2719   1.083       .  S
C2720      N2721   1.352       .  A
C2720      H2730   1.081       .  S
N2721      C2722   1.356       .  A
C2722      H2728   1.081       .  S
C2723      N2724   1.354       .  A
C2723      H2725   1.082       .  S
N2724      C2726   1.353       .  A
C2726      H2727   1.082       .  S
C2731      C2733   1.546       .  S
C2731      C2735   1.553       .  S
C2731      C2734   1.538       .  S
C2731      C2841   1.541       .  S
C2732      C2736   1.523       .  S
C2732      C2738   1.534       .  S
C2732      C2737   1.541       .  S
C2732      C2849   1.529       .  S
C2733      C2741   1.382       .  A
C2733      C3168   1.403       .  A
C2734      C2745   1.383       .  A
C2734      C3169   1.400       .  A
C2735      C2749   1.389       .  A
C2735      C3170   1.409       .  A
C2736      C3165   1.403   1_554  A
C2736      C2739   1.377       .  A
C2737      C3166   1.400   1_554  A
C2737      C2743   1.379       .  A
C2738      C3167   1.409   1_554  A
C2738      C2746   1.377       .  A
C2739      N3172   1.350       .  A
C2739      H2752   1.083       .  S
N2740      C3171   1.350       .  A
N2740      C2741   1.350       .  A
C2741      H2742   1.081       .  S
C2743      N2744   1.355   1_554  A
C2743      H2753   1.080       .  S
N2744      C3177   1.358       .  A
N2744      C2977   1.447   1_556  S
C2745      N3176   1.358       .  A
C2745      H2751   1.082       .  S
C2746      N3179   1.348       .  A
C2746      H2748   1.082       .  S
N2747      C3178   1.348       .  A
N2747      C2749   1.352       .  A
N2747      C2815   1.431       .  S
C2749      H2750   1.080       .  S
C2754      C2756   1.575       .  S
C2754      C2758   1.554       .  S
C2754      C2757   1.545       .  S
C2754      C2833   1.550       .  S
C2755      C2759   1.534       .  S
C2755      C2761   1.530       .  S
C2755      C2760   1.527       .  S
C2755      C2857   1.530       .  S
C2756      C2764   1.387       .  A
C2756      C2759   1.417       .  A
C2757      C2768   1.384       .  A
C2757      C2760   1.390       .  A
C2758      C2772   1.391       .  A
C2758      C2761   1.395       .  A
C2759      C2762   1.389       .  A
C2760      C2766   1.371       .  A
C2761      C2769   1.376       .  A
C2762      N2763   1.347       .  A
C2762      H2775   1.083       .  S
N2763      C2764   1.344       .  A
N2763      C2830   1.437       .  S
C2764      H2765   1.078       .  S
C2766      N2767   1.354       .  A
C2766      H2776   1.082       .  S
N2767      C2768   1.363       .  A
N2767      C2961   1.439       .  S
C2768      H2774   1.082       .  S
C2769      N2770   1.354       .  A
C2769      H2771   1.083       .  S
N2770      C2772   1.362       .  A
C2772      H2773   1.078       .  S
O2777     Ni2785   1.910       .  S
O2777      C3219   1.280       .  A
O2778     Ni2785   1.908       .  S
O2778      C3220   1.280       .  A
O2779     Ni2785   1.917       .  S
O2779      C3221   1.283       .  A
O2780     Ni2785   1.922       .  S
O2780      C3222   1.282       .  A
O2781     Ni2786   1.911       .  S
O2781      C2790   1.281       .  A
O2782     Ni2786   1.914       .  S
O2782      C2789   1.280       .  A
O2783     Ni2786   1.911       .  S
O2783      C2788   1.281       .  A
O2784     Ni2786   1.915       .  S
O2784      C2787   1.282       .  A
Ni2785    Ni3218   2.389   1_554  S
Ni2786    Ni3217   2.389       .  S
C2787      O3209   1.280       .  A
C2788      O3210   1.280       .  A
C2789      O3211   1.283       .  A
C2790      O3212   1.282       .  A
O2791     Ni2799   1.922       .  S
O2791      C2801   1.281       .  A
O2792     Ni2799   1.920       .  S
O2792      C2802   1.282       .  A
O2793     Ni2799   1.925       .  S
O2793      C2803   1.283       .  A
O2794     Ni2799   1.927       .  S
O2794      C2804   1.284       .  A
O2795     Ni2800   1.925       .  S
O2795      C2804   1.282       .  A
O2796     Ni2800   1.925       .  S
O2796      C2803   1.283       .  A
O2797     Ni2800   1.925       .  S
O2797      C2802   1.283       .  A
O2798     Ni2800   1.923       .  S
O2798      C2801   1.284       .  A
Ni2799    Ni2800   2.386       .  S
O2805     Ni2813   1.912       .  S
O2805      C3247   1.280       .  A
O2806     Ni2813   1.910       .  S
O2806      C3248   1.280       .  A
O2807     Ni2813   1.924       .  S
O2807      C3249   1.284       .  A
O2808     Ni2813   1.921       .  S
O2808      C3250   1.283       .  A
O2809     Ni2814   1.917       .  S
O2809      C2818   1.281       .  A
O2810     Ni2814   1.923       .  S
O2810      C2817   1.282       .  A
O2811     Ni2814   1.913       .  S
O2811      C2816   1.281       .  A
O2812     Ni2814   1.912       .  S
O2812      C2815   1.281       .  A
Ni2813    Ni3246   2.388   1_554  S
Ni2814    Ni3245   2.388       .  S
C2815      O3237   1.280       .  A
C2816      O3238   1.280       .  A
C2817      O3239   1.284       .  A
C2818      O3240   1.283       .  A
O2819     Ni2827   1.920       .  S
O2819      C2829   1.282       .  A
O2820     Ni2827   1.919       .  S
O2820      C2830   1.284       .  A
O2821     Ni2827   1.916       .  S
O2821      C2831   1.282       .  A
O2822     Ni2827   1.910       .  S
O2822      C2832   1.279       .  A
O2823     Ni2828   1.918       .  S
O2823      C2832   1.283       .  A
O2824     Ni2828   1.925       .  S
O2824      C2831   1.283       .  A
O2825     Ni2828   1.917       .  S
O2825      C2830   1.280       .  A
O2826     Ni2828   1.909       .  S
O2826      C2829   1.280       .  A
Ni2827    Ni2828   2.388       .  S
C2833      C2834   1.408       .  A
C2833      C2838   1.417       .  A
C2834      C2835   1.392       .  A
C2834      H2843   1.076       .  S
C2835      C2836   1.393       .  A
C2835      H2844   1.082       .  S
C2836      C2842   1.402       .  A
C2836      C2837   1.408       .  A
C2837      C2839   1.402       .  A
C2837      C2838   1.417       .  A
C2838      H2845   1.076       .  S
C2839      C2840   1.405       .  A
C2839      H2846   1.082       .  S
C2840      C2841   1.415       .  A
C2840      H2847   1.082       .  S
C2841      C2842   1.406       .  A
C2842      H2848   1.072       .  S
C2849      C2850   1.410       .  A
C2849      C2854   1.409       .  A
C2850      C2851   1.396       .  A
C2850      H2859   1.082       .  S
C2851      C2852   1.399       .  A
C2851      H2860   1.083       .  S
C2852      C2858   1.403       .  A
C2852      C2853   1.412       .  A
C2853      C2855   1.400       .  A
C2853      C2854   1.405       .  A
C2854      H2861   1.084       .  S
C2855      C2856   1.397       .  A
C2855      H2862   1.084       .  S
C2856      C2857   1.411       .  A
C2856      H2863   1.081       .  S
C2857      C2858   1.408       .  A
C2858      H2864   1.084       .  S
C2865      C2866   1.412       .  A
C2865      C2870   1.410       .  A
C2866      C2867   1.398       .  A
C2866      H2875   1.079       .  S
C2867      C2868   1.399       .  A
C2867      H2876   1.083       .  S
C2868      C2874   1.410       .  A
C2868      C2869   1.413       .  A
C2869      C2871   1.400       .  A
C2869      C2870   1.412       .  A
C2870      H2877   1.083       .  S
C2871      C2872   1.399       .  A
C2871      H2878   1.084       .  S
C2872      C2873   1.413       .  A
C2872      H2879   1.083       .  S
C2873      C2874   1.408       .  A
C2874      H2880   1.079       .  S
C2881      C2882   1.405       .  A
C2881      C2886   1.413       .  A
C2882      C2883   1.401       .  A
C2882      H2891   1.082       .  S
C2883      C2884   1.405       .  A
C2883      H2892   1.083       .  S
C2884      C2890   1.406       .  A
C2884      C2885   1.409       .  A
C2885      C2887   1.402       .  A
C2885      C2886   1.403       .  A
C2886      H2893   1.084       .  S
C2887      C2888   1.397       .  A
C2887      H2894   1.084       .  S
C2888      C2889   1.408       .  A
C2888      H2895   1.082       .  S
C2889      C2890   1.414       .  A
C2890      H2896   1.082       .  S
C2897      C2902   1.403       .  A
C2898      H2907   1.083   1_545  S
C2899      C2900   1.398       .  A
C2900      C2906   1.396       .  A
C2900      C2901   1.415       .  A
C2901      C2903   1.399       .  A
C2901      C2902   1.397       .  A
C2902      H2909   1.083       .  S
C2903      C2904   1.393       .  A
C2903      H2910   1.084       .  S
C2904      C2905   1.407       .  A
C2904      H2911   1.082       .  S
C2905      C2906   1.400       .  A
C2906      H2912   1.084       .  S
C2913      C3350   1.409   1_554  A
C2914      H2923   1.082       .  S
C2915      C2916   1.401       .  A
C2916      C2922   1.405       .  A
C2916      C2917   1.413   1_554  A
C2917      C3351   1.404       .  A
C2917      C3350   1.409       .  A
C2918      C3345   1.409       .  A
C2918      C3349   1.409       .  A
C2918      H2925   1.083       .  S
C2919      C3349   1.404       .  A
C2919      C2920   1.401       .  A
C2919      H2926   1.084       .  S
C2920      C3353   1.408       .  A
C2920      H2927   1.082       .  S
C2921      C3352   1.408       .  A
C2921      C2922   1.407   1_556  A
C2922      H2928   1.083       .  S
C2929      C2930   1.413       .  A
C2929      C2934   1.408       .  A
C2930      C2931   1.394       .  A
C2930      H2939   1.081       .  S
C2931      C2932   1.396       .  A
C2931      H2940   1.084       .  S
C2932      C2938   1.405       .  A
C2932      C2933   1.413       .  A
C2933      C2935   1.398       .  A
C2933      C2934   1.407       .  A
C2934      H2941   1.083       .  S
C2935      C2936   1.396       .  A
C2935      H2942   1.084       .  S
C2936      C2937   1.412       .  A
C2936      H2943   1.082       .  S
C2937      C2938   1.406       .  A
C2938      H2944   1.082       .  S
C2945      C2946   1.414       .  A
C2945      C2950   1.410       .  A
C2946      C2947   1.391       .  A
C2946      H2955   1.082       .  S
C2947      C2948   1.395       .  A
C2947      H2956   1.084       .  S
C2948      C2954   1.404       .  A
C2948      C2949   1.413       .  A
C2949      C2951   1.400       .  A
C2949      C2950   1.412       .  A
C2950      H2957   1.082       .  S
C2951      C2952   1.400       .  A
C2951      H2958   1.083       .  S
C2952      C2953   1.412       .  A
C2952      H2959   1.081       .  S
C2953      C2954   1.406       .  A
C2954      H2960   1.083       .  S
C2961      C2962   1.407       .  A
C2961      C2966   1.404       .  A
C2962      C2963   1.396       .  A
C2962      H2971   1.083       .  S
C2963      C2964   1.400       .  A
C2963      H2972   1.084       .  S
C2964      C2970   1.406       .  A
C2964      C2965   1.417       .  A
C2965      C2967   1.401       .  A
C2965      C2966   1.407       .  A
C2966      H2973   1.084       .  S
C2967      C2968   1.397       .  A
C2967      H2974   1.084       .  S
C2968      C2969   1.406       .  A
C2968      H2975   1.082       .  S
C2969      C2970   1.403       .  A
C2977      C3410   1.410       .  A
C2977      C2982   1.407   1_554  A
C2978      C3409   1.410       .  A
C2978      C2979   1.397       .  A
C2978      H2987   1.080       .  S
C2979      C2980   1.399       .  A
C2979      H2988   1.084       .  S
C2980      C2986   1.405       .  A
C2980      C3413   1.413       .  A
C2981      C3412   1.413   1_556  A
C2981      C2983   1.399       .  A
C2981      C2982   1.404       .  A
C2982      H2989   1.083       .  S
C2983      C2984   1.395       .  A
C2983      H2990   1.084       .  S
C2984      C2985   1.410       .  A
C2984      H2991   1.080       .  S
C2985      C3418   1.407   1_556  A
C2986      C3417   1.407       .  A
C2993      C2994   1.409       .  A
C2993      C2998   1.411       .  A
C2994      C2995   1.396       .  A
C2994      H3003   1.082       .  S
C2995      C2996   1.400       .  A
C2995      H3004   1.084       .  S
C2996      C3002   1.404       .  A
C2996      C2997   1.411       .  A
C2997      C2999   1.402       .  A
C2997      C2998   1.407       .  A
C2998      H3005   1.084       .  S
C2999      C3000   1.400       .  A
C2999      H3006   1.084       .  S
C3000      C3001   1.409       .  A
C3000      H3007   1.081       .  S
C3001      C3002   1.410       .  A
C3002      H3008   1.084       .  S
C3009      C3010   1.411       .  A
C3009      C3014   1.412       .  A
C3010      C3011   1.395       .  A
C3010      H3019   1.083       .  S
C3011      C3012   1.398       .  A
C3011      H3020   1.083       .  S
C3012      C3018   1.407       .  A
C3012      C3013   1.413       .  A
C3013      C3015   1.402       .  A
C3013      C3014   1.412       .  A
C3014      H3021   1.082       .  S
C3015      C3016   1.401       .  A
C3015      H3022   1.083       .  S
C3016      C3017   1.410       .  A
C3016      H3023   1.082       .  S
C3017      C3018   1.409       .  A
C3018      H3024   1.083       .  S
C3025      C3027   1.529       .  S
C3025      C3029   1.547       .  S
C3025      C3028   1.543       .  S
C3025      C3449   1.535       .  S
C3026      C3030   1.532       .  S
C3026      C3032   1.545       .  S
C3026      C3031   1.535       .  S
C3026      C3433   1.534       .  S
C3027      C3035   1.376       .  A
C3028      C3039   1.380       .  A
C3029      C3043   1.384       .  A
C3030      C3033   1.380       .  A
C3031      C3037   1.373       .  A
C3032      C3040   1.384       .  A
C3033      N3034   1.354   1_556  A
C3033      H3046   1.082       .  S
N3034      C3248   1.430       .  S
C3035      H3036   1.082       .  S
C3037      H3047   1.080       .  S
N3038      C3039   1.362       .  A
C3039      H3045   1.081       .  S
C3040      N3041   1.347   1_556  A
C3040      H3042   1.083       .  S
C3043      H3044   1.082       .  S
C3048      C3050   1.544       .  S
C3048      C3052   1.533       .  S
C3048      C3051   1.548       .  S
C3048      C3441   1.533       .  S
C3049      C3053   1.540       .  S
C3049      C3055   1.533       .  S
C3049      C3054   1.539       .  S
C3049      C3425   1.530       .  S
C3050      C3058   1.385       .  A
C3050      C3053   1.406       .  A
C3051      C3062   1.386       .  A
C3051      C3054   1.397       .  A
C3052      C3066   1.379       .  A
C3052      C3055   1.405       .  A
C3053      C3056   1.385       .  A
C3054      C3060   1.373       .  A
C3055      C3063   1.384       .  A
C3056      N3057   1.353       .  A
C3056      H3069   1.082       .  S
N3057      C3058   1.352       .  A
C3058      H3059   1.083       .  S
C3060      N3061   1.355       .  A
C3060      H3070   1.082       .  S
N3061      C3062   1.361       .  A
C3062      H3068   1.082       .  S
C3063      N3064   1.350       .  A
C3063      H3065   1.083       .  S
N3064      C3066   1.351       .  A
N3064      C3261   1.432       .  S
C3066      H3067   1.083       .  S
C3071      C3073   1.530       .  S
C3071      C3075   1.535       .  S
C3071      C3074   1.549       .  S
C3071      C3377   1.534       .  S
C3072      C3076   1.540       .  S
C3072      C3078   1.542       .  S
C3072      C3077   1.541       .  S
C3072      C3361   1.532       .  S
C3073      C3081   1.381       .  A
C3074      C3085   1.379       .  A
C3075      C3089   1.380       .  A
C3076      C3079   1.385       .  A
C3077      C3083   1.378       .  A
C3078      C3086   1.390       .  A
C3079      N3080   1.353   1_556  A
C3079      H3092   1.082       .  S
N3080      C3250   1.436       .  S
C3081      H3082   1.082       .  S
C3083      H3093   1.081       .  S
N3084      C3085   1.363       .  A
N3084      C3353   1.446       .  S
C3085      H3091   1.081       .  S
C3086      N3087   1.351   1_556  A
C3086      H3088   1.083       .  S
N3087      C3221   1.433       .  S
C3089      H3090   1.083       .  S
C3094      C3096   1.535       .  S
C3094      C3098   1.547       .  S
C3094      C3097   1.531       .  S
C3094      C3369   1.531       .  S
C3095      C3099   1.538       .  S
C3095      C3101   1.554       .  S
C3095      C3100   1.534       .  S
C3095      C3385   1.533       .  S
C3096      C3104   1.380       .  A
C3096      C3099   1.401       .  A
C3097      C3108   1.371       .  A
C3097      C3100   1.386       .  A
C3098      C3112   1.389       .  A
C3098      C3101   1.418       .  A
C3099      C3102   1.386       .  A
C3100      C3106   1.376       .  A
C3101      C3109   1.389       .  A
C3102      N3103   1.356       .  A
C3102      H3115   1.082       .  S
N3103      C3104   1.353       .  A
N3103      C3263   1.438       .  S
C3104      H3105   1.082       .  S
C3106      N3107   1.357       .  A
C3106      H3116   1.080       .  S
N3107      C3108   1.353       .  A
N3107      C3337   1.432       .  S
C3108      H3114   1.082       .  S
C3109      N3110   1.353       .  A
C3109      H3111   1.082       .  S
N3110      C3112   1.351       .  A
N3110      C3236   1.442       .  S
C3112      H3113   1.082       .  S
C3117      C3119   1.536       .  S
C3117      C3121   1.540       .  S
C3117      C3120   1.542       .  S
C3117      C3321   1.533       .  S
C3118      C3122   1.539       .  S
C3118      C3124   1.543       .  S
C3118      C3123   1.550       .  S
C3118      C3305   1.539       .  S
C3119      C3127   1.383       .  A
C3120      C3131   1.375       .  A
C3121      C3135   1.390       .  A
C3122      C3125   1.388       .  A
C3123      C3129   1.386       .  A
C3124      C3132   1.381       .  A
C3125      N3126   1.356   1_556  A
C3125      H3138   1.083       .  S
N3126      C3249   1.440       .  S
C3127      H3128   1.082       .  S
C3129      H3139   1.080       .  S
N3130      C3131   1.358       .  A
C3131      H3137   1.081       .  S
C3132      N3133   1.348   1_556  A
C3132      H3134   1.083       .  S
C3135      H3136   1.083       .  S
C3140      C3142   1.537       .  S
C3140      C3144   1.547       .  S
C3140      C3143   1.539       .  S
C3140      C3297   1.536       .  S
C3141      C3145   1.530       .  S
C3141      C3147   1.548       .  S
C3141      C3146   1.530       .  S
C3141      C3313   1.532       .  S
C3142      C3150   1.381       .  A
C3142      C3145   1.403       .  A
C3143      C3154   1.379       .  A
C3143      C3146   1.388       .  A
C3144      C3158   1.385       .  A
C3144      C3147   1.418       .  A
C3145      C3148   1.378       .  A
C3146      C3152   1.372       .  A
C3147      C3155   1.387       .  A
C3148      N3149   1.351       .  A
C3148      H3161   1.082       .  S
N3149      C3150   1.354       .  A
N3149      C3264   1.432       .  S
C3150      H3151   1.083       .  S
C3152      N3153   1.352       .  A
C3152      H3162   1.081       .  S
N3153      C3154   1.356       .  A
C3154      H3160   1.081       .  S
C3155      N3156   1.354       .  A
C3155      H3157   1.082       .  S
N3156      C3158   1.353       .  A
C3158      H3159   1.082       .  S
C3163      C3165   1.546       .  S
C3163      C3167   1.553       .  S
C3163      C3166   1.538       .  S
C3163      C3273   1.541       .  S
C3164      C3168   1.523       .  S
C3164      C3170   1.534       .  S
C3164      C3169   1.541       .  S
C3164      C3281   1.529       .  S
C3165      C3173   1.382       .  A
C3166      C3177   1.383       .  A
C3167      C3181   1.389       .  A
C3168      C3171   1.377       .  A
C3169      C3175   1.379       .  A
C3170      C3178   1.377       .  A
C3171      H3184   1.083       .  S
N3172      C3173   1.350   1_554  A
C3173      H3174   1.081       .  S
C3175      N3176   1.355       .  A
C3175      H3185   1.080       .  S
N3176      C3409   1.447       .  S
C3177      H3183   1.082       .  S
C3178      H3180   1.082       .  S
N3179      C3181   1.352   1_554  A
N3179      C3247   1.431       .  S
C3181      H3182   1.080       .  S
C3186      C3188   1.575       .  S
C3186      C3190   1.554       .  S
C3186      C3189   1.545       .  S
C3186      C3265   1.550       .  S
C3187      C3191   1.534       .  S
C3187      C3193   1.530       .  S
C3187      C3192   1.527       .  S
C3187      C3289   1.530       .  S
C3188      C3196   1.387       .  A
C3188      C3191   1.417       .  A
C3189      C3200   1.384       .  A
C3189      C3192   1.390       .  A
C3190      C3204   1.391       .  A
C3190      C3193   1.395       .  A
C3191      C3194   1.389       .  A
C3192      C3198   1.371       .  A
C3193      C3201   1.376       .  A
C3194      N3195   1.347       .  A
C3194      H3207   1.083       .  S
N3195      C3196   1.344       .  A
N3195      C3262   1.437       .  S
C3196      H3197   1.078       .  S
C3198      N3199   1.354       .  A
C3198      H3208   1.082       .  S
N3199      C3200   1.363       .  A
N3199      C3393   1.439       .  S
C3200      H3206   1.082       .  S
C3201      N3202   1.354       .  A
C3201      H3203   1.083       .  S
N3202      C3204   1.362       .  A
C3204      H3205   1.078       .  S
O3209     Ni3217   1.910       .  S
O3210     Ni3217   1.908       .  S
O3211     Ni3217   1.917       .  S
O3212     Ni3217   1.922       .  S
O3213     Ni3218   1.911       .  S
O3213      C3222   1.281   1_556  A
O3214     Ni3218   1.914       .  S
O3214      C3221   1.280   1_556  A
O3215     Ni3218   1.911       .  S
O3215      C3220   1.281   1_556  A
O3216     Ni3218   1.915       .  S
O3216      C3219   1.282   1_556  A
O3223     Ni3231   1.922       .  S
O3223      C3233   1.281       .  A
O3224     Ni3231   1.920       .  S
O3224      C3234   1.282       .  A
O3225     Ni3231   1.925       .  S
O3225      C3235   1.283       .  A
O3226     Ni3231   1.927       .  S
O3226      C3236   1.284       .  A
O3227     Ni3232   1.925       .  S
O3227      C3236   1.282       .  A
O3228     Ni3232   1.925       .  S
O3228      C3235   1.283       .  A
O3229     Ni3232   1.925       .  S
O3229      C3234   1.283       .  A
O3230     Ni3232   1.923       .  S
O3230      C3233   1.284       .  A
Ni3231    Ni3232   2.386       .  S
O3237     Ni3245   1.912       .  S
O3238     Ni3245   1.910       .  S
O3239     Ni3245   1.924       .  S
O3240     Ni3245   1.921       .  S
O3241     Ni3246   1.917       .  S
O3241      C3250   1.281   1_556  A
O3242     Ni3246   1.923       .  S
O3242      C3249   1.282   1_556  A
O3243     Ni3246   1.913       .  S
O3243      C3248   1.281   1_556  A
O3244     Ni3246   1.912       .  S
O3244      C3247   1.281   1_556  A
O3251     Ni3259   1.920       .  S
O3251      C3261   1.282       .  A
O3252     Ni3259   1.919       .  S
O3252      C3262   1.284       .  A
O3253     Ni3259   1.916       .  S
O3253      C3263   1.282       .  A
O3254     Ni3259   1.910       .  S
O3254      C3264   1.279       .  A
O3255     Ni3260   1.918       .  S
O3255      C3264   1.283       .  A
O3256     Ni3260   1.925       .  S
O3256      C3263   1.283       .  A
O3257     Ni3260   1.917       .  S
O3257      C3262   1.280       .  A
O3258     Ni3260   1.909       .  S
O3258      C3261   1.280       .  A
Ni3259    Ni3260   2.388       .  S
C3265      C3266   1.408       .  A
C3265      C3270   1.417       .  A
C3266      C3267   1.392       .  A
C3266      H3275   1.076       .  S
C3267      C3268   1.393       .  A
C3267      H3276   1.082       .  S
C3268      C3274   1.402       .  A
C3268      C3269   1.408       .  A
C3269      C3271   1.402       .  A
C3269      C3270   1.417       .  A
C3270      H3277   1.076       .  S
C3271      C3272   1.405       .  A
C3271      H3278   1.082       .  S
C3272      C3273   1.415       .  A
C3272      H3279   1.082       .  S
C3273      C3274   1.406       .  A
C3274      H3280   1.072       .  S
C3281      C3282   1.410       .  A
C3281      C3286   1.409       .  A
C3282      C3283   1.396       .  A
C3282      H3291   1.082       .  S
C3283      C3284   1.399       .  A
C3283      H3292   1.083       .  S
C3284      C3290   1.403       .  A
C3284      C3285   1.412       .  A
C3285      C3287   1.400       .  A
C3285      C3286   1.405       .  A
C3286      H3293   1.084       .  S
C3287      C3288   1.397       .  A
C3287      H3294   1.084       .  S
C3288      C3289   1.411       .  A
C3288      H3295   1.081       .  S
C3289      C3290   1.408       .  A
C3290      H3296   1.084       .  S
C3297      C3298   1.412       .  A
C3297      C3302   1.410       .  A
C3298      C3299   1.398       .  A
C3298      H3307   1.079       .  S
C3299      C3300   1.399       .  A
C3299      H3308   1.083       .  S
C3300      C3306   1.410       .  A
C3300      C3301   1.413       .  A
C3301      C3303   1.400       .  A
C3301      C3302   1.412       .  A
C3302      H3309   1.083       .  S
C3303      C3304   1.399       .  A
C3303      H3310   1.084       .  S
C3304      C3305   1.413       .  A
C3304      H3311   1.083       .  S
C3305      C3306   1.408       .  A
C3306      H3312   1.079       .  S
C3313      C3314   1.405       .  A
C3313      C3318   1.413       .  A
C3314      C3315   1.401       .  A
C3314      H3323   1.082       .  S
C3315      C3316   1.405       .  A
C3315      H3324   1.083       .  S
C3316      C3322   1.406       .  A
C3316      C3317   1.409       .  A
C3317      C3319   1.402       .  A
C3317      C3318   1.403       .  A
C3318      H3325   1.084       .  S
C3319      C3320   1.397       .  A
C3319      H3326   1.084       .  S
C3320      C3321   1.408       .  A
C3320      H3327   1.082       .  S
C3321      C3322   1.414       .  A
C3322      H3328   1.082       .  S
C3329      C3334   1.403       .  A
C3330      H3339   1.083   1_545  S
C3331      C3332   1.398       .  A
C3332      C3338   1.396       .  A
C3332      C3333   1.415       .  A
C3333      C3335   1.399       .  A
C3333      C3334   1.397       .  A
C3334      H3341   1.083       .  S
C3335      C3336   1.393       .  A
C3335      H3342   1.084       .  S
C3336      C3337   1.407       .  A
C3336      H3343   1.082       .  S
C3337      C3338   1.400       .  A
C3338      H3344   1.084       .  S
C3346      H3355   1.082       .  S
C3347      C3348   1.401       .  A
C3348      C3354   1.405       .  A
C3348      C3349   1.413       .  A
C3350      H3357   1.083       .  S
C3351      C3352   1.401       .  A
C3351      H3358   1.084       .  S
C3352      H3359   1.082       .  S
C3353      C3354   1.407       .  A
C3354      H3360   1.083       .  S
C3361      C3362   1.413       .  A
C3361      C3366   1.408       .  A
C3362      C3363   1.394       .  A
C3362      H3371   1.081       .  S
C3363      C3364   1.396       .  A
C3363      H3372   1.084       .  S
C3364      C3370   1.405       .  A
C3364      C3365   1.413       .  A
C3365      C3367   1.398       .  A
C3365      C3366   1.407       .  A
C3366      H3373   1.083       .  S
C3367      C3368   1.396       .  A
C3367      H3374   1.084       .  S
C3368      C3369   1.412       .  A
C3368      H3375   1.082       .  S
C3369      C3370   1.406       .  A
C3370      H3376   1.082       .  S
C3377      C3378   1.414       .  A
C3377      C3382   1.410       .  A
C3378      C3379   1.391       .  A
C3378      H3387   1.082       .  S
C3379      C3380   1.395       .  A
C3379      H3388   1.084       .  S
C3380      C3386   1.404       .  A
C3380      C3381   1.413       .  A
C3381      C3383   1.400       .  A
C3381      C3382   1.412       .  A
C3382      H3389   1.082       .  S
C3383      C3384   1.400       .  A
C3383      H3390   1.083       .  S
C3384      C3385   1.412       .  A
C3384      H3391   1.081       .  S
C3385      C3386   1.406       .  A
C3386      H3392   1.083       .  S
C3393      C3394   1.407       .  A
C3393      C3398   1.404       .  A
C3394      C3395   1.396       .  A
C3394      H3403   1.083       .  S
C3395      C3396   1.400       .  A
C3395      H3404   1.084       .  S
C3396      C3402   1.406       .  A
C3396      C3397   1.417       .  A
C3397      C3399   1.401       .  A
C3397      C3398   1.407       .  A
C3398      H3405   1.084       .  S
C3399      C3400   1.397       .  A
C3399      H3406   1.084       .  S
C3400      C3401   1.406       .  A
C3400      H3407   1.082       .  S
C3401      C3402   1.403       .  A
C3409      C3414   1.407       .  A
C3410      C3411   1.397       .  A
C3410      H3419   1.080       .  S
C3411      C3412   1.399       .  A
C3411      H3420   1.084       .  S
C3412      C3418   1.405       .  A
C3413      C3415   1.399       .  A
C3413      C3414   1.404       .  A
C3414      H3421   1.083       .  S
C3415      C3416   1.395       .  A
C3415      H3422   1.084       .  S
C3416      C3417   1.410       .  A
C3416      H3423   1.080       .  S
C3425      C3426   1.409       .  A
C3425      C3430   1.411       .  A
C3426      C3427   1.396       .  A
C3426      H3435   1.082       .  S
C3427      C3428   1.400       .  A
C3427      H3436   1.084       .  S
C3428      C3434   1.404       .  A
C3428      C3429   1.411       .  A
C3429      C3431   1.402       .  A
C3429      C3430   1.407       .  A
C3430      H3437   1.084       .  S
C3431      C3432   1.400       .  A
C3431      H3438   1.084       .  S
C3432      C3433   1.409       .  A
C3432      H3439   1.081       .  S
C3433      C3434   1.410       .  A
C3434      H3440   1.084       .  S
C3441      C3442   1.411       .  A
C3441      C3446   1.412       .  A
C3442      C3443   1.395       .  A
C3442      H3451   1.083       .  S
C3443      C3444   1.398       .  A
C3443      H3452   1.083       .  S
C3444      C3450   1.407       .  A
C3444      C3445   1.413       .  A
C3445      C3447   1.402       .  A
C3445      C3446   1.412       .  A
C3446      H3453   1.082       .  S
C3447      C3448   1.401       .  A
C3447      H3454   1.083       .  S
C3448      C3449   1.410       .  A
C3448      H3455   1.082       .  S
C3449      C3450   1.409       .  A
C3450      H3456   1.083       .  S
