geometry optimzed in LAMMPS
_audit_creation_date              2020-11-30 
_audit_creation_method            'lammps2cif' 
_symmetry_space_group_name_H-M    'P1' 
_symmetry_Int_Tables_number       1 
_symmetry_cell_setting            triclinic 
loop_ 
_symmetry_equiv_pos_as_xyz 
  x,y,z 
_cell_length_a                    33.47403145 
_cell_length_b                    34.262374289224766 
_cell_length_c                    27.85185366023002 
_cell_angle_alpha                 99.44247602317675 
_cell_angle_beta                  90.36496054209965 
_cell_angle_gamma                 89.72799029502568 
loop_ 
_atom_site_label 
_atom_site_type_symbol 
_atom_site_fract_x 
_atom_site_fract_y 
_atom_site_fract_z 
_atom_site_charge 
C1          C  0.83919476  0.20949672  0.04610097     0.03000
C2          C  0.85576798  0.19573562  0.00018867    -0.13200
C3          C  0.83815604  0.20533938  0.95774937     0.00500
C4          C  0.80376807  0.22922245  0.96192077    -0.11700
C5          C  0.78702900  0.24372777  0.00753784     0.02900
C6          C  0.80466996  0.23317572  0.04942698    -0.11100
H7          H  0.88258300  0.17773162  0.99761678     0.08500
H8          H  0.79045788  0.23724876  0.92941180     0.06100
H9          H  0.79202850  0.24401261  0.08482344     0.05900
C10         C  0.22575693  0.96832720  0.90749398     0.03000
C11         C  0.21059082  0.98158660  0.95420158    -0.13200
C12         C  0.22668016  0.96767633  0.99480977     0.00500
C13         C  0.25841152  0.94057616  0.98831185    -0.11700
C14         C  0.27389446  0.92725025  0.94181273     0.02900
C15         C  0.25768683  0.94143300  0.90151260    -0.11100
H16         H  0.18547333  0.00190552  0.95868745     0.08500
H17         H  0.27058991  0.92917386  0.01942058     0.06100
H18         H  0.26905995  0.93059879  0.86540613     0.05900
Zr19       Zr  0.48623513  0.60478744  0.89715325     2.17500
O20         O  0.42433628  0.60729520  0.85097842    -0.51500
O21         O  0.52577929  0.63776231  0.84257459    -0.74700
O22         O  0.45512319  0.66944417  0.91254865    -0.81500
O23         O  0.50753893  0.50005529  0.83494002    -0.83200
O24         O  0.47015783  0.69792215  0.99000563    -0.78900
O25         O  0.47679871  0.55703253  0.82344837    -0.90500
O26         O  0.59018226  0.63972097  0.86867654    -0.76500
O27         O  0.53104530  0.64529231  0.94987309    -0.86000
O28         O  0.54885782  0.57147071  0.88966102    -0.85600
O29         O  0.45734300  0.61006513  0.97697797    -0.72400
O30         O  0.47389237  0.54203966  0.92173304    -0.84500
Zr31       Zr  0.55594800  0.55439213  0.04739531     2.26400
Zr32       Zr  0.50388325  0.64941236  0.02969810     2.06300
Zr33       Zr  0.53725795  0.50948337  0.91511701     2.10000
Zr34       Zr  0.59342815  0.61174960  0.94295175     1.78800
O35         O  0.50292932  0.44629452  0.89606505    -0.93300
O36         O  0.61558461  0.67985914  0.96667547    -0.41100
O37         O  0.58391047  0.54867415  0.96744458    -0.77800
O38         O  0.56775632  0.61762113  0.02390087    -0.96500
O39         O  0.49297389  0.58731524  0.05561163    -0.89800
O40         O  0.51072280  0.51397018  0.99486467    -0.92600
C41         C  0.56278267  0.64653380  0.83872412     1.01100
C42         C  0.48713332  0.52086304  0.80927311     1.14100
C43         C  0.45406314  0.69829860  0.94817739     1.04900
O44         O  0.53975134  0.71146387  0.05216055    -0.94800
O45         O  0.52760541  0.65648945  0.11315276    -0.90500
O46         O  0.55727878  0.59911490  0.12528607    -0.83700
C47         C  0.54609662  0.63504794  0.13995974     1.11500
O48         O  0.38239793  0.54864226  0.96481797    -0.96700
Zr49       Zr  0.44816387  0.54716138  0.00270408     1.88900
O50         O  0.51918245  0.51590301  0.09718736    -0.73400
O51         O  0.44509269  0.67347968  0.07677408    -0.52600
O52         O  0.40127839  0.58265930  0.06100407    -0.97300
O53         O  0.42008954  0.48173950  0.97495855    -0.54500
O54         O  0.45454557  0.51183189  0.07168026    -0.73900
C55         C  0.48308894  0.50417443  0.09986613     0.98400
O56         O  0.62066650  0.55390827  0.08835985    -0.62700
O57         O  0.59281140  0.48749483  0.86117974    -0.57500
O58         O  0.59052531  0.49121293  0.03042839    -0.94200
O59         O  0.57642822  0.46315126  0.95251149    -0.92600
O60         O  0.64669953  0.57995609  0.89137666    -0.93000
O61         O  0.65819539  0.61260223  0.98342219    -0.91800
C62         C  0.59334711  0.46306554  0.99394513     1.17300
H63         H  0.55817854  0.56746221  0.85649136     0.33200
H64         H  0.58627637  0.63267521  0.04632944     0.44100
H65         H  0.50861680  0.48777646  0.00315188     0.37600
H66         H  0.43180131  0.62348365  0.97774242     0.34100
H67         H  0.63808332  0.68266446  0.94459274     0.25900
H68         H  0.44184775  0.65501941  0.10032711     0.31800
H69         H  0.39395560  0.56359352  0.08257674     0.37700
H70         H  0.63386791  0.57071521  0.85943754     0.32200
H71         H  0.58963834  0.50183523  0.83328779     0.31100
H72         H  0.52162541  0.42903109  0.87472216     0.32700
H73         H  0.43714256  0.46321007  0.98981830     0.31700
H74         H  0.65254306  0.60508912  0.01552681     0.35700
H75         H  0.64012471  0.54562828  0.06197667     0.28400
H76         H  0.42739388  0.62969128  0.83289455     0.32700
H77         H  0.36348023  0.53943150  0.98771789     0.35500
H78         H  0.61671605  0.49942277  0.87878282     0.28100
H79         H  0.62734058  0.58200567  0.09994087     0.41000
H80         H  0.52204451  0.72810772  0.07554790     0.31100
H81         H  0.59393114  0.69622729  0.95580729     0.38700
H82         H  0.42648138  0.47594058  0.93984161     0.30500
H83         H  0.45369232  0.69862814  0.09685817     0.30600
H84         H  0.40343415  0.61589225  0.87549403     0.30900
C85         C  0.41011560  0.38054356  0.38719088     0.03000
C86         C  0.38516937  0.34743038  0.38441852    -0.13200
C87         C  0.37071853  0.33517662  0.42663870     0.00500
C88         C  0.38299197  0.35546030  0.47222950    -0.11700
C89         C  0.40909893  0.38767090  0.47585066     0.02900
C90         C  0.42200383  0.40056182  0.43325829    -0.11100
H91         H  0.37721902  0.33086729  0.34917799     0.08500
H92         H  0.37137658  0.34699551  0.50523269     0.06100
H93         H  0.44115859  0.42623238  0.43616042     0.05900
C94         C  0.64682340  0.77205466  0.55545143     0.03000
C95         C  0.62839138  0.75640534  0.51116078    -0.13200
C96         C  0.63968607  0.76874643  0.46772701     0.00500
C97         C  0.66909474  0.79797174  0.46891726    -0.11700
C98         C  0.68831636  0.81391944  0.51287340     0.02900
C99         C  0.67711435  0.80047065  0.55607477    -0.11100
H100        H  0.60575588  0.73376702  0.51029063     0.08500
H101        H  0.67837964  0.80682975  0.43510547     0.06100
H102        H  0.69139766  0.81251650  0.59028076     0.05900
Zr103      Zr  0.05348336  0.11819603  0.40382153     2.17500
O104        O  0.05424320  0.18286449  0.37803873    -0.51500
O105        O  0.08607910  0.08238161  0.33221367    -0.74700
O106        O  0.12019250  0.14593539  0.41121593    -0.81500
O107        O  0.94561756  0.10583625  0.36297101    -0.83200
O108        O  0.14985650  0.12628904  0.47679217    -0.78900
O109        O  0.00509413  0.13089095  0.34372497    -0.90500
O110        O  0.08801098  0.01786618  0.34139759    -0.76500
O111        O  0.09257069  0.06799917  0.43100340    -0.86000
O112        O  0.01577132  0.05880616  0.38690600    -0.85600
O113        O  0.06358746  0.14146223  0.48902638    -0.72400
O114        O  0.99200189  0.13167475  0.44739184    -0.84500
Zr115      Zr  0.00364411  0.04327670  0.54574894     2.26400
Zr116      Zr  0.10160381  0.08974686  0.51600067     2.06300
Zr117      Zr  0.95527542  0.07113081  0.43166267     2.10000
Zr118      Zr  0.05428448  0.00912143  0.41542498     1.78800
O119        O  0.89250357  0.10699773  0.44714536    -0.93300
O120        O  0.11816778  0.97519623  0.41829195    -0.41100
O121        O  0.99351578  0.02029669  0.46036807    -0.77800
O122        O  0.06486523  0.02898795  0.50124018    -0.96500
O123        O  0.04139560  0.10278983  0.56171627    -0.89800
O124        O  0.96405793  0.09287619  0.51708030    -0.92600
C125        C  0.09582673  0.04609410  0.31791312     1.01100
C126        C  0.96766352  0.12443536  0.33661671     1.14100
C127        C  0.15001420  0.14454457  0.44007068     1.04900
O128        O  0.16141256  0.04855737  0.50510365    -0.94800
O129        O  0.11095414  0.06198892  0.58924545    -0.90500
O130        O  0.05296328  0.03377258  0.60753505    -0.83700
C131        C  0.08977676  0.04319979  0.61595952     1.11500
O132        O  0.00664002  0.22071287  0.52081929    -0.96700
Zr133      Zr  0.00213686  0.15207464  0.53298815     1.88900
O134        O  0.96934144  0.07949183  0.61626742    -0.73400
O135        O  0.13342316  0.14044608  0.57532448    -0.52600
O136        O  0.04209146  0.19251773  0.59546329    -0.97300
O137        O  0.93867142  0.18665443  0.52948557    -0.54500
O138        O  0.96977320  0.14429651  0.60820266    -0.73900
C139        C  0.96090271  0.11604999  0.63120326     0.98400
O140        O  0.00269362  0.98172340  0.57913087    -0.62700
O141        O  0.92922518  0.02494550  0.36277701    -0.57500
O142        O  0.94059831  0.00777452  0.53060356    -0.94200
O143        O  0.91100674  0.02583584  0.46393427    -0.92600
O144        O  0.01348595  0.97122824  0.35164650    -0.93000
O145        O  0.04599556  0.94007004  0.42408452    -0.91800
C146        C  0.91202614  0.00596487  0.49925784     1.17300
H147        H  0.01031579  0.05172551  0.35248414     0.33200
H148        H  0.07952147  0.00836827  0.51365708     0.44100
H149        H  0.93831545  0.09586932  0.53274398     0.37600
H150        H  0.07861872  0.16583941  0.49395824     0.34100
H151        H  0.12137382  0.95956540  0.38532088     0.25900
H152        H  0.11501744  0.14458058  0.60340405     0.31800
H153        H  0.02244274  0.20911617  0.61611762     0.37700
H154        H  0.03283057  0.95833104  0.32725875     0.32200
H155        H  0.93010891  0.99867891  0.37319050     0.31100
H156        H  0.87463379  0.09520216  0.42023079     0.32700
H157        H  0.91837980  0.16857065  0.53920107     0.31700
H158        H  0.04322732  0.94061814  0.45955613     0.35700
H159        H  0.97956818  0.98401707  0.60144673     0.28400
H160        H  0.07648075  0.18181226  0.35457421     0.32700
H161        H  0.02366760  0.21988651  0.49174270     0.35500
H162        H  0.90042671  0.03140710  0.36136524     0.28100
H163        H  0.99530563  0.96074819  0.55169212     0.41000
H164        H  0.17853071  0.05841082  0.53360224     0.31100
H165        H  0.13837292  0.99639615  0.41997079     0.38700
H166        H  0.93360484  0.18630887  0.49435243     0.30500
H167        H  0.15711461  0.12727649  0.58704279     0.30600
H168        H  0.06321592  0.20154065  0.40701439     0.30900
C169        C  0.85390775  0.89218659  0.56392546    -0.18000
C170        C  0.82270650  0.86538309  0.56576183    -0.20200
C171        C  0.78740890  0.86802113  0.53894753     0.20500
C172        C  0.78363328  0.89788564  0.50980666    -0.03100
C173        C  0.81516475  0.92489641  0.50787647    -0.06200
C174        C  0.85042362  0.92210272  0.53517973     0.20800
C175        C  0.81144841  0.95452838  0.47841334     0.18900
C176        C  0.77631552  0.95700012  0.45129464    -0.17600
C177        C  0.74508642  0.93033602  0.45328828    -0.19900
C178        C  0.74845506  0.90066362  0.48236596     0.20400
C179        C  0.71735341  0.87361575  0.48421166    -0.32900
C180        C  0.72084897  0.84354163  0.51295390     0.01100
C181        C  0.75601510  0.84112792  0.54040687    -0.24200
C182        C  0.88164825  0.94905037  0.53296718    -0.28800
C183        C  0.87830390  0.97859496  0.50336951     0.06800
C184        C  0.84296292  0.98103473  0.47628017    -0.27500
H185        H  0.88082264  0.88946552  0.58495995     0.11500
H186        H  0.82620409  0.84254556  0.58817152     0.12600
H187        H  0.77300441  0.97954935  0.42843737     0.11700
H188        H  0.71831411  0.93284950  0.43192215     0.11000
H189        H  0.69027982  0.87605814  0.46333183     0.16300
H190        H  0.75933161  0.81775783  0.56207799     0.12200
H191        H  0.90879745  0.94656351  0.55369339     0.15100
H192        H  0.83991105  0.00359995  0.45337932     0.14900
C193        C  0.31360515  0.22291048  0.49318420    -0.18000
C194        C  0.28270596  0.19594376  0.49487391    -0.20200
C195        C  0.25144152  0.19291991  0.46070906     0.20500
C196        C  0.25201942  0.21613684  0.42333708    -0.03100
C197        C  0.28307032  0.24350785  0.42180707    -0.06200
C198        C  0.31359254  0.24733289  0.45741903     0.20800
C199        C  0.28282416  0.26793070  0.38568404     0.18900
C200        C  0.25265733  0.26342820  0.34999106    -0.17600
C201        C  0.22195364  0.23609813  0.35134557    -0.19900
C202        C  0.22085618  0.21304710  0.38857679     0.20400
C203        C  0.18840664  0.18814974  0.39280931    -0.32900
C204        C  0.18656192  0.16657310  0.43164427     0.01100
C205        C  0.21889049  0.16819201  0.46445458    -0.24200
C206        C  0.34298381  0.27621362  0.45750658    -0.28800
C207        C  0.34182626  0.30209565  0.42321687     0.06800
C208        C  0.31198910  0.29724780  0.38683472    -0.27500
H209        H  0.33700779  0.22532785  0.52055979     0.11500
H210        H  0.28280237  0.17806811  0.52356254     0.12600
H211        H  0.25234536  0.28162677  0.32163123     0.11700
H212        H  0.19849885  0.23375177  0.32404055     0.11000
H213        H  0.16394309  0.18677783  0.36690087     0.16300
H214        H  0.21812832  0.15137378  0.49418164     0.12200
H215        H  0.36643921  0.27891243  0.48483916     0.15100
H216        H  0.31047004  0.31720922  0.36045409     0.14900
C217        C  0.39098999  0.42266416  0.18001257    -0.18000
C218        C  0.38058779  0.40596020  0.22074831    -0.20200
C219        C  0.40721824  0.40737716  0.26013219     0.20500
C220        C  0.44516659  0.42461049  0.25786385    -0.03100
C221        C  0.45552824  0.44172245  0.21697765    -0.06200
C222        C  0.42804705  0.44132572  0.17821995     0.20800
C223        C  0.49289521  0.46028956  0.21561773     0.18900
C224        C  0.52009046  0.46044195  0.25419098    -0.17600
C225        C  0.50993232  0.44321697  0.29453879    -0.19900
C226        C  0.47233872  0.42580419  0.29704537     0.20400
C227        C  0.46115848  0.41038439  0.33851390    -0.32900
C228        C  0.42280451  0.39454609  0.34192941     0.01100
C229        C  0.39617318  0.39279289  0.30223005    -0.24200
C230        C  0.43758327  0.46071291  0.13918309    -0.28800
C231        C  0.47412501  0.48075693  0.13865288     0.06800
C232        C  0.50199394  0.47946046  0.17645877    -0.27500
H233        H  0.36967809  0.42179650  0.15041388     0.11500
H234        H  0.35145003  0.39249001  0.22178530     0.12600
H235        H  0.54897979  0.47447303  0.25352314     0.11700
H236        H  0.53117903  0.44422422  0.32422794     0.11000
H237        H  0.48226306  0.41103666  0.36829800     0.16300
H238        H  0.36632509  0.38116235  0.30454699     0.12200
H239        H  0.41619119  0.46095688  0.10984520     0.15100
H240        H  0.53039117  0.49453104  0.17636632     0.14900
C241        C  0.43880138  0.52814415  0.64285796    -0.18000
C242        C  0.42855566  0.50953800  0.59591817    -0.20200
C243        C  0.43096238  0.46822553  0.58334180     0.20500
C244        C  0.44372657  0.44539167  0.61844648    -0.03100
C245        C  0.45398745  0.46414456  0.66577960    -0.06200
C246        C  0.45153679  0.50573012  0.67801045     0.20800
C247        C  0.46662367  0.44126020  0.70083011     0.18900
C248        C  0.46885613  0.39994062  0.68842405    -0.17600
C249        C  0.45869462  0.38135203  0.64151293    -0.19900
C250        C  0.44605054  0.40380287  0.60635742     0.20400
C251        C  0.43532019  0.38536000  0.55946570    -0.32900
C252        C  0.42222168  0.40786680  0.52443960     0.01100
C253        C  0.42044951  0.44930706  0.53646462    -0.24200
C254        C  0.46196491  0.52416153  0.72509996    -0.28800
C255        C  0.47495636  0.50152962  0.76005773     0.06800
C256        C  0.47696784  0.46006402  0.74763836    -0.27500
H257        H  0.43673479  0.56008569  0.65168087     0.11500
H258        H  0.41869860  0.52747275  0.56944339     0.12600
H259        H  0.47848764  0.38199705  0.71500570     0.11700
H260        H  0.46060295  0.34939694  0.63276612     0.11000
H261        H  0.43706359  0.35340302  0.55012053     0.16300
H262        H  0.40997282  0.46669479  0.50967374     0.12200
H263        H  0.46045052  0.55613026  0.73429729     0.15100
H264        H  0.48659574  0.44229281  0.77443521     0.14900
C265        C  0.57623166  0.77448061  0.30805878    -0.18000
C266        C  0.56254224  0.75552155  0.26267132    -0.20200
C267        C  0.56496169  0.71419342  0.25010555     0.20500
C268        C  0.58074453  0.69162378  0.28381107    -0.03100
C269        C  0.59412897  0.71073252  0.32988901    -0.06200
C270        C  0.59229207  0.75241149  0.34181608     0.20800
C271        C  0.60985093  0.68818523  0.36370447     0.18900
C272        C  0.61205420  0.64683816  0.35121663    -0.17600
C273        C  0.59925149  0.62795608  0.30532272    -0.19900
C274        C  0.58370056  0.65006489  0.27124569     0.20400
C275        C  0.57163534  0.63146289  0.22463143    -0.32900
C276        C  0.55628312  0.65387722  0.19051755     0.01100
C277        C  0.55253964  0.69520959  0.20405619    -0.24200
C278        C  0.60696953  0.77127631  0.38701446    -0.28800
C279        C  0.62280160  0.74895101  0.42073681     0.06800
C280        C  0.62366752  0.70742126  0.40908127    -0.27500
H281        H  0.57445175  0.80644766  0.31665376     0.11500
H282        H  0.55047253  0.77325451  0.23713262     0.12600
H283        H  0.62409018  0.62911296  0.37678342     0.11700
H284        H  0.60169904  0.59604718  0.29639818     0.11000
H285        H  0.57457967  0.59963482  0.21480836     0.16300
H286        H  0.54097217  0.71295355  0.17822160     0.12200
H287        H  0.60605388  0.80327737  0.39609312     0.15100
H288        H  0.63619664  0.69017516  0.43490983     0.14900
C289        C  0.54154736  0.73544022  0.66299072    -0.18000
C290        C  0.52963656  0.71711277  0.70187613    -0.20200
C291        C  0.55811570  0.70049746  0.72981442     0.20500
C292        C  0.59904746  0.70249775  0.71852486    -0.03100
C293        C  0.61110705  0.72127716  0.67950958    -0.06200
C294        C  0.58215580  0.73763651  0.65151061     0.20800
C295        C  0.65206220  0.72336082  0.66827226     0.18900
C296        C  0.68050039  0.70636363  0.69589212    -0.17600
C297        C  0.66853060  0.68757682  0.73437897    -0.19900
C298        C  0.62793103  0.68565159  0.74609068     0.20400
C299        C  0.61576696  0.66729526  0.78498111    -0.32900
C300        C  0.57503155  0.66550335  0.79691328     0.01100
C301        C  0.54637460  0.68200466  0.76884935    -0.24200
C302        C  0.59425972  0.75531274  0.61203499    -0.28800
C303        C  0.63494088  0.75713717  0.60029634     0.06800
C304        C  0.66374968  0.74168777  0.62904058    -0.27500
H305        H  0.51895793  0.74782627  0.64179164     0.11500
H306        H  0.49810431  0.71582849  0.71000763     0.14400
H307        H  0.71201638  0.70745434  0.68760054     0.11700
H308        H  0.69107009  0.67462972  0.75509427     0.11000
H309        H  0.63814485  0.65433434  0.80593705     0.16300
H310        H  0.51494540  0.68082754  0.77763726     0.12200
H311        H  0.57201473  0.76728275  0.58992804     0.15100
H312        H  0.69508204  0.74260679  0.61966635     0.14900
C313        C  0.17134491  0.07095852  0.12208931    -0.18000
C314        C  0.15331434  0.08209352  0.16748535    -0.20200
C315        C  0.14516287  0.05370204  0.19711599     0.20500
C316        C  0.15572764  0.01377369  0.18105109    -0.03100
C317        C  0.17400865  0.00256924  0.13538646    -0.06200
C318        C  0.18161648  0.03128157  0.10565403     0.20800
C319        C  0.18417808  0.96255461  0.11925405     0.18900
C320        C  0.17620194  0.93416441  0.14886752    -0.17600
C321        C  0.15801706  0.94525560  0.19405234    -0.19900
C322        C  0.14755713  0.98489589  0.21029484     0.20400
C323        C  0.12855830  0.99595865  0.25501683    -0.32900
C324        C  0.11730229  0.03555949  0.27118087     0.01100
C325        C  0.12612522  0.06438731  0.24215905    -0.24200
C326        C  0.19907372  0.01974630  0.05989384    -0.28800
C327        C  0.20911179  0.97991431  0.04357662     0.06800
C328        C  0.20170209  0.95152667  0.07354680    -0.27500
H329        H  0.17704272  0.09335368  0.09969537     0.11500
H330        H  0.14543469  0.11287142  0.17923935     0.12600
H331        H  0.18380017  0.90333349  0.13694836     0.11700
H332        H  0.15187993  0.92276816  0.21617360     0.11000
H333        H  0.12216669  0.97341880  0.27699226     0.16300
H334        H  0.11775146  0.09500923  0.25423315     0.12200
H335        H  0.20506731  0.04175882  0.03702827     0.15100
H336        H  0.20880381  0.92066861  0.06081992     0.14900
C337        C  0.21251724  0.02870502  0.71045368    -0.18000
C338        C  0.23178953  0.01808605  0.75109124    -0.20200
C339        C  0.20965909  0.00414660  0.78733776     0.20500
C340        C  0.16770479  0.00084850  0.78259635    -0.03100
C341        C  0.14832906  0.01124422  0.74145653    -0.06200
C342        C  0.17087379  0.02530058  0.70533853     0.20800
C343        C  0.10643110  0.00755077  0.73649536     0.18900
C344        C  0.08429980  0.99377194  0.77285234    -0.17600
C345        C  0.10348242  0.98366350  0.81379383    -0.19900
C346        C  0.14507463  0.98710657  0.81892520     0.20400
C347        C  0.16441503  0.97695268  0.85973750    -0.32900
C348        C  0.20607614  0.98010161  0.86463584     0.01100
C349        C  0.22864320  0.99348386  0.82827808    -0.24200
C350        C  0.15141657  0.03564770  0.66465600    -0.28800
C351        C  0.10966320  0.03185712  0.65919895     0.06800
C352        C  0.08738672  0.01771534  0.69530931    -0.27500
H353        H  0.23019449  0.03948281  0.68294223     0.11500
H354        H  0.26397487  0.02083904  0.75421081     0.12600
H355        H  0.05213793  0.99083952  0.76964127     0.11700
H356        H  0.08578473  0.97311062  0.84144880     0.11000
H357        H  0.14713096  0.96596280  0.88746469     0.16300
H358        H  0.26082847  0.99594133  0.83220099     0.12200
H359        H  0.16898631  0.04643404  0.63703564     0.15100
H360        H  0.05522050  0.01492379  0.69162300     0.14900
C361        C  0.42143047  0.83855511  0.00168834    -0.18000
C362        C  0.39632535  0.87097645  0.00034965    -0.20200
C363        C  0.36463689  0.86834485  0.96685524     0.20500
C364        C  0.35868074  0.83313605  0.93345421    -0.03100
C365        C  0.38409921  0.80049820  0.93467743    -0.06200
C366        C  0.41523575  0.80312934  0.96944798     0.20800
C367        C  0.37757701  0.76489133  0.90221605     0.18900
C368        C  0.34608922  0.76242496  0.86836534    -0.17600
C369        C  0.32068754  0.79478115  0.86733285    -0.19900
C370        C  0.32654047  0.83010041  0.89999399     0.20400
C371        C  0.29999122  0.86192989  0.90111168    -0.32900
C372        C  0.30504998  0.89640813  0.93559889     0.01100
C373        C  0.33792728  0.89982154  0.96743970    -0.24200
C374        C  0.43887683  0.76992842  0.97244549    -0.28800
C375        C  0.43184834  0.73408578  0.94117868     0.06800
C376        C  0.40181827  0.73200280  0.90532210    -0.27500
H377        H  0.44527175  0.84096353  0.02850072     0.11500
H378        H  0.40119528  0.89785067  0.02616811     0.12600
H379        H  0.34066992  0.73524429  0.84329581     0.11700
H380        H  0.29610063  0.79198100  0.84151534     0.11000
H381        H  0.27432006  0.85917597  0.87686484     0.16300
H382        H  0.34190959  0.92661436  0.99373747     0.12200
H383        H  0.46226119  0.77178035  0.99984469     0.15100
H384        H  0.39617231  0.70434826  0.88121073     0.14900
C385        C  0.96002411  0.19070109  0.14266003    -0.18000
C386        C  0.97806106  0.17844906  0.18312647    -0.20200
C387        C  0.95461534  0.16575277  0.21918381     0.20500
C388        C  0.91260521  0.16592400  0.21482106    -0.03100
C389        C  0.89443860  0.17805795  0.17391130    -0.06200
C390        C  0.91829437  0.19020165  0.13749938     0.20800
C391        C  0.85244108  0.17743936  0.16911693     0.18900
C392        C  0.82897847  0.16558619  0.20566934    -0.17600
C393        C  0.84698244  0.15376317  0.24635028    -0.19900
C394        C  0.88871624  0.15342261  0.25096133     0.20400
C395        C  0.90691757  0.14029605  0.29079284    -0.32900
C396        C  0.94875228  0.13936352  0.29505753     0.01100
C397        C  0.97241825  0.15248887  0.25924994    -0.24200
C398        C  0.90001676  0.20106789  0.09625763    -0.28800
C399        C  0.85823490  0.19953319  0.09067672     0.06800
C400        C  0.83464552  0.18808309  0.12751221    -0.27500
H401        H  0.97873044  0.20010173  0.11509913     0.11500
H402        H  0.01035885  0.17862589  0.18604214     0.12600
H403        H  0.79669459  0.16513825  0.20259415     0.11700
H404        H  0.82826663  0.14442886  0.27394517     0.11000
H405        H  0.88841608  0.13062273  0.31838026     0.16300
H406        H  0.00472576  0.15189310  0.26212785     0.12200
H407        H  0.91829838  0.21063648  0.06840203     0.15100
H408        H  0.80244686  0.18657708  0.12325765     0.14900
C409        C  0.90604990  0.10200748  0.84031890    -0.18000
C410        C  0.92224766  0.08900679  0.79420766    -0.20200
C411        C  0.92179367  0.11372198  0.75867842     0.20500
C412        C  0.90459188  0.15183082  0.76971372    -0.03100
C413        C  0.88824722  0.16491488  0.81616771    -0.06200
C414        C  0.88904944  0.13991421  0.85167249     0.20800
C415        C  0.87146411  0.20316087  0.82717181     0.18900
C416        C  0.87078364  0.22785571  0.79168574    -0.17600
C417        C  0.88698867  0.21492573  0.74572356    -0.19900
C418        C  0.90417710  0.17713108  0.73457143     0.20400
C419        C  0.92164821  0.16459115  0.68916927    -0.32900
C420        C  0.93974612  0.12705133  0.67808238     0.01100
C421        C  0.93897785  0.10140596  0.71273226    -0.24200
C422        C  0.87276733  0.15322111  0.89780927    -0.28800
C423        C  0.85596767  0.19137583  0.90910623     0.06800
C424        C  0.85582131  0.21620560  0.87352168    -0.27500
H425        H  0.90695329  0.08244598  0.86718311     0.11500
H426        H  0.93540476  0.05971201  0.78645796     0.12600
H427        H  0.85787987  0.25726107  0.79955557     0.11700
H428        H  0.88640367  0.23463921  0.71901942     0.11000
H429        H  0.92159488  0.18444725  0.66259914     0.16300
H430        H  0.95282425  0.07242772  0.70456861     0.12200
H431        H  0.87263847  0.13360810  0.92462362     0.15100
H432        H  0.84395672  0.24600593  0.88198829     0.14900
C433        C  0.69606342  0.39924143  0.08328754    -0.18000
C434        C  0.72296425  0.36824434  0.08554876    -0.20200
C435        C  0.72360062  0.33511242  0.04849517     0.20500
C436        C  0.69640303  0.33284099  0.00925051    -0.03100
C437        C  0.66973735  0.36435815  0.00656475    -0.06200
C438        C  0.66967573  0.39776293  0.04369240     0.20800
C439        C  0.64377162  0.36277821  0.96621018     0.18900
C440        C  0.64400174  0.32942454  0.92950962    -0.17600
C441        C  0.66999473  0.29791389  0.93256598    -0.19900
C442        C  0.69652806  0.29954655  0.97201322     0.20400
C443        C  0.72414913  0.26908472  0.97388045    -0.32900
C444        C  0.75316908  0.27226404  0.01108380     0.01100
C445        C  0.75197508  0.30497878  0.04899776    -0.24200
C446        C  0.64381801  0.42943227  0.04009230    -0.28800
C447        C  0.61845126  0.42843982  0.99943396     0.06800
C448        C  0.61843677  0.39480626  0.96284526    -0.27500
H449        H  0.69635522  0.42467443  0.11210653     0.11500
H450        H  0.74359254  0.37039674  0.11599998     0.12600
H451        H  0.62425190  0.32781682  0.89827506     0.11700
H452        H  0.66990321  0.27260281  0.90357646     0.11000
H453        H  0.72391513  0.24349411  0.94527837     0.16300
H454        H  0.77433041  0.30812677  0.07765547     0.12200
H455        H  0.64424012  0.45525889  0.06838129     0.15100
H456        H  0.59894678  0.39360438  0.93140066     0.14900
loop_ 
_geom_bond_atom_site_label_1 
_geom_bond_atom_site_label_2 
_geom_bond_distance 
_geom_bond_site_symmetry_2 
_ccdc_geom_bond_type 
C1            C2   1.405       .  A
C1            C6   1.404       .  A
C1          C399   1.480       .  S
C2            C3   1.404   1_554  A
C2            H7   1.083   1_554  S
C3            C4   1.403       .  A
C3          C423   1.488       .  S
C4            C5   1.405   1_556  A
C4            H8   1.081       .  S
C5            C6   1.403       .  A
C5          C444   1.486       .  S
C6            H9   1.083       .  S
C10          C11   1.403       .  A
C10          C15   1.401       .  A
C10         C348   1.472       .  S
C11          C12   1.401       .  A
C11          H16   1.084   1_565  S
C12          C13   1.400       .  A
C12         C327   1.479   1_556  S
C13          C14   1.402       .  A
C13          H17   1.084   1_556  S
C14          C15   1.400       .  A
C14         C372   1.472       .  S
C15          H18   1.084       .  S
Zr19         O20   2.440       .  S
Zr19         O21   2.438       .  S
Zr19         O22   2.418       .  S
Zr19         O25   2.426       .  S
Zr19         O27   2.378       .  S
Zr19         O28   2.376       .  S
Zr19         O29   2.409       .  S
Zr19         O30   2.399       .  S
O20          H76   0.991       .  S
O20          H84   0.990       .  S
O21          C41   1.285       .  A
O22          C43   1.281       .  A
O23         Zr33   2.412       .  S
O23          C42   1.282       .  A
O24         Zr32   2.414   1_556  S
O24          C43   1.282       .  A
O25          C42   1.284       .  A
O26         Zr34   2.420       .  S
O26          C41   1.282       .  A
O27         Zr32   2.390   1_556  S
O27         Zr34   2.372       .  S
O28         Zr33   2.381       .  S
O28         Zr34   2.378       .  S
O28          H63   0.965       .  S
O29         Zr32   2.396   1_556  S
O29         Zr49   2.402   1_556  S
O29          H66   0.968       .  S
O30         Zr33   2.386       .  S
O30         Zr49   2.398   1_556  S
Zr31         O56   2.443       .  S
Zr31         O50   2.411       .  S
Zr31         O58   2.428       .  S
Zr31         O46   2.442       .  S
Zr31         O37   2.399   1_554  S
Zr31         O38   2.399       .  S
Zr31         O39   2.381       .  S
Zr31         O40   2.383   1_554  S
Zr32         O51   2.436       .  S
Zr32         O44   2.435       .  S
Zr32         O45   2.426       .  S
Zr32         O38   2.389       .  S
Zr32         O39   2.387       .  S
Zr33         O35   2.435       .  S
Zr33         O57   2.436       .  S
Zr33         O59   2.414       .  S
Zr33         O37   2.391       .  S
Zr33         O40   2.379       .  S
Zr34         O60   2.435       .  S
Zr34         O61   2.435       .  S
Zr34         O36   2.437       .  S
Zr34         O37   2.394       .  S
Zr34         O38   2.395   1_556  S
O35          H72   0.990       .  S
O36          H67   0.990       .  S
O36          H81   0.990       .  S
O38          H64   0.966       .  S
O39         Zr49   2.375       .  S
O40         Zr49   2.372   1_556  S
O40          H65   0.966   1_556  S
C41         C300   1.484       .  S
C42         C255   1.477       .  S
C43         C375   1.470       .  S
O44          H80   0.990       .  S
O45          C47   1.285       .  A
O46          C47   1.287       .  A
C47         C276   1.488       .  S
O48         Zr49   2.439   1_556  S
O48          H77   0.990       .  S
Zr49         O52   2.438       .  S
Zr49         O53   2.439   1_554  S
Zr49         O54   2.441       .  S
O50          C55   1.282       .  A
O51          H68   0.990       .  S
O51          H83   0.990       .  S
O52          H69   0.990       .  S
O53          H73   0.990       .  S
O53          H82   0.990       .  S
O54          C55   1.286       .  A
C55         C231   1.480       .  S
O56          H75   0.990       .  S
O56          H79   0.990       .  S
O57          H71   0.990       .  S
O57          H78   0.990       .  S
O58          C62   1.285   1_554  A
O59          C62   1.283       .  A
O60          H70   0.990       .  S
O61          H74   0.990   1_556  S
C62         C447   1.478       .  S
C85          C86   1.404       .  A
C85          C90   1.408       .  A
C85         C228   1.486       .  S
C86          C87   1.401       .  A
C86          H91   1.082       .  S
C87          C88   1.404       .  A
C87         C207   1.484       .  S
C88          C89   1.401       .  A
C88          H92   1.083       .  S
C89          C90   1.403       .  A
C89         C252   1.480       .  S
C90          H93   1.083       .  S
C94          C95   1.402       .  A
C94          C99   1.407       .  A
C94         C303   1.482       .  S
C95          C96   1.400       .  A
C95         H100   1.084       .  S
C96          C97   1.404       .  A
C96         C279   1.482       .  S
C97          C98   1.409       .  A
C97         H101   1.083       .  S
C98          C99   1.411       .  A
C98         C180   1.492       .  S
C99         H102   1.083       .  S
Zr103       O104   2.439       .  S
Zr103       O105   2.426       .  S
Zr103       O106   2.425       .  S
Zr103       O109   2.411       .  S
Zr103       O111   2.374       .  S
Zr103       O112   2.379       .  S
Zr103       O113   2.399       .  S
Zr103       O114   2.400   1_455  S
O104        H160   0.990       .  S
O104        H168   0.990       .  S
O105        C125   1.283       .  A
O106        C127   1.283       .  A
O107       Zr117   2.432       .  S
O107        C126   1.286       .  A
O108       Zr116   2.421       .  S
O108        C127   1.283       .  A
O109        C126   1.282   1_455  A
O110       Zr118   2.419       .  S
O110        C125   1.282       .  A
O111       Zr116   2.380       .  S
O111       Zr118   2.373       .  S
O112       Zr117   2.384   1_455  S
O112       Zr118   2.367       .  S
O112        H147   0.966       .  S
O113       Zr116   2.393       .  S
O113       Zr133   2.396       .  S
O113        H150   0.967       .  S
O114       Zr117   2.393       .  S
O114       Zr133   2.394   1_655  S
Zr115       O140   2.441   1_545  S
Zr115       O134   2.435   1_455  S
Zr115       O142   2.440   1_455  S
Zr115       O130   2.436       .  S
Zr115       O121   2.402   1_455  S
Zr115       O122   2.408       .  S
Zr115       O123   2.382       .  S
Zr115       O124   2.386   1_455  S
Zr116       O135   2.436       .  S
Zr116       O128   2.436       .  S
Zr116       O129   2.406       .  S
Zr116       O122   2.398       .  S
Zr116       O123   2.392       .  S
Zr117       O119   2.434       .  S
Zr117       O141   2.437       .  S
Zr117       O143   2.431       .  S
Zr117       O121   2.395       .  S
Zr117       O124   2.390       .  S
Zr118       O144   2.436   1_545  S
Zr118       O145   2.434   1_545  S
Zr118       O120   2.436   1_545  S
Zr118       O121   2.391   1_455  S
Zr118       O122   2.400       .  S
O119        H156   0.990       .  S
O120        H151   0.990       .  S
O120        H165   0.990       .  S
O122        H148   0.966       .  S
O123       Zr133   2.372       .  S
O124       Zr133   2.379   1_655  S
O124        H149   0.966       .  S
C125        C324   1.482       .  S
C126        C396   1.478       .  S
C127        C204   1.481       .  S
O128        H164   0.990       .  S
O129        C131   1.280       .  A
O130        C131   1.286       .  A
C131        C351   1.478       .  S
O132       Zr133   2.436       .  S
O132        H161   0.990       .  S
Zr133       O136   2.436       .  S
Zr133       O137   2.437   1_455  S
Zr133       O138   2.418   1_455  S
O134        C139   1.284       .  A
O135        H152   0.990       .  S
O135        H167   0.990       .  S
O136        H153   0.990       .  S
O137        H157   0.990       .  S
O137        H166   0.990       .  S
O138        C139   1.282       .  A
C139        C420   1.482       .  S
O140        H159   0.991   1_455  S
O140        H163   0.990   1_455  S
O141        H155   0.990   1_545  S
O141        H162   0.990       .  S
O142        C146   1.286       .  A
O143        C146   1.285       .  A
O144        H154   0.990       .  S
O145        H158   0.990       .  S
C146        C183   1.488   1_545  S
C169        C170   1.401       .  A
C169        C174   1.404       .  A
C169        H185   1.084       .  S
C170        C171   1.404       .  A
C170        H186   1.083       .  S
C171        C181   1.406       .  A
C171        C172   1.411       .  A
C172        C178   1.411       .  A
C172        C173   1.414       .  A
C173        C175   1.411       .  A
C173        C174   1.411       .  A
C174        C182   1.406       .  A
C175        C184   1.403       .  A
C175        C176   1.403       .  A
C176        C177   1.399       .  A
C176        H187   1.084       .  S
C177        C178   1.404       .  A
C177        H188   1.083       .  S
C178        C179   1.404       .  A
C179        C180   1.409       .  A
C179        H189   1.084       .  S
C180        C181   1.409       .  A
C181        H190   1.084       .  S
C182        C183   1.410       .  A
C182        H191   1.084       .  S
C183        C184   1.409       .  A
C184        H192   1.084   1_565  S
C193        C194   1.396       .  A
C193        C198   1.402       .  A
C193        H209   1.084       .  S
C194        C195   1.403       .  A
C194        H210   1.084       .  S
C195        C205   1.398       .  A
C195        C196   1.410       .  A
C196        C202   1.411       .  A
C196        C197   1.409       .  A
C197        C199   1.410       .  A
C197        C198   1.411       .  A
C198        C206   1.398       .  A
C199        C208   1.401       .  A
C199        C200   1.404       .  A
C200        C201   1.398       .  A
C200        H211   1.084       .  S
C201        C202   1.404       .  A
C201        H212   1.084       .  S
C202        C203   1.402       .  A
C203        C204   1.409       .  A
C203        H213   1.084       .  S
C204        C205   1.407       .  A
C205        H214   1.084       .  S
C206        C207   1.406       .  A
C206        H215   1.084       .  S
C207        C208   1.409       .  A
C208        H216   1.084       .  S
C217        C218   1.399       .  A
C217        C222   1.403       .  A
C217        H233   1.084       .  S
C218        C219   1.404       .  A
C218        H234   1.084       .  S
C219        C229   1.400       .  A
C219        C220   1.409       .  A
C220        C226   1.412       .  A
C220        C221   1.410       .  A
C221        C223   1.410       .  A
C221        C222   1.412       .  A
C222        C230   1.403       .  A
C223        C232   1.398       .  A
C223        C224   1.403       .  A
C224        C225   1.397       .  A
C224        H235   1.084       .  S
C225        C226   1.402       .  A
C225        H236   1.084       .  S
C226        C227   1.400       .  A
C227        C228   1.406       .  A
C227        H237   1.084       .  S
C228        C229   1.410       .  A
C229        H238   1.084       .  S
C230        C231   1.407       .  A
C230        H239   1.084       .  S
C231        C232   1.408       .  A
C232        H240   1.084       .  S
C241        C242   1.399       .  A
C241        C246   1.403       .  A
C241        H257   1.084       .  S
C242        C243   1.403       .  A
C242        H258   1.083       .  S
C243        C253   1.403       .  A
C243        C244   1.412       .  A
C244        C250   1.411       .  A
C244        C245   1.410       .  A
C245        C247   1.410       .  A
C245        C246   1.412       .  A
C246        C254   1.402       .  A
C247        C256   1.398       .  A
C247        C248   1.403       .  A
C248        C249   1.397       .  A
C248        H259   1.084       .  S
C249        C250   1.403       .  A
C249        H260   1.084       .  S
C250        C251   1.400       .  A
C251        C252   1.406       .  A
C251        H261   1.084       .  S
C252        C253   1.405       .  A
C253        H262   1.084       .  S
C254        C255   1.406       .  A
C254        H263   1.084       .  S
C255        C256   1.407       .  A
C256        H264   1.084       .  S
C265        C266   1.399       .  A
C265        C270   1.403       .  A
C265        H281   1.084       .  S
C266        C267   1.404       .  A
C266        H282   1.084       .  S
C267        C277   1.401       .  A
C267        C268   1.409       .  A
C268        C274   1.413       .  A
C268        C269   1.413       .  A
C269        C271   1.410       .  A
C269        C270   1.413       .  A
C270        C278   1.404       .  A
C271        C280   1.403       .  A
C271        C272   1.404       .  A
C272        C273   1.400       .  A
C272        H283   1.084       .  S
C273        C274   1.404       .  A
C273        H284   1.084       .  S
C274        C275   1.407       .  A
C275        C276   1.409       .  A
C275        H285   1.084       .  S
C276        C277   1.410       .  A
C277        H286   1.084       .  S
C278        C279   1.405       .  A
C278        H287   1.084       .  S
C279        C280   1.407       .  A
C280        H288   1.084       .  S
C289        C290   1.399       .  A
C289        C294   1.404       .  A
C289        H305   1.083       .  S
C290        C291   1.403       .  A
C290        H306   1.084       .  S
C291        C301   1.404       .  A
C291        C292   1.412       .  A
C292        C298   1.410       .  A
C292        C293   1.413       .  A
C293        C295   1.413       .  A
C293        C294   1.411       .  A
C294        C302   1.402       .  A
C295        C304   1.405       .  A
C295        C296   1.403       .  A
C296        C297   1.399       .  A
C296        H307   1.084       .  S
C297        C298   1.404       .  A
C297        H308   1.084       .  S
C298        C299   1.402       .  A
C299        C300   1.410       .  A
C299        H309   1.084       .  S
C300        C301   1.408       .  A
C301        H310   1.084       .  S
C302        C303   1.407       .  A
C302        H311   1.084       .  S
C303        C304   1.406       .  A
C304        H312   1.084       .  S
C313        C314   1.399       .  A
C313        C318   1.403       .  A
C313        H329   1.084       .  S
C314        C315   1.404       .  A
C314        H330   1.083       .  S
C315        C325   1.404       .  A
C315        C316   1.412       .  A
C316        C322   1.410   1_545  A
C316        C317   1.410       .  A
C317        C319   1.412   1_545  A
C317        C318   1.411       .  A
C318        C326   1.401       .  A
C319        C328   1.399       .  A
C319        C320   1.402       .  A
C320        C321   1.396       .  A
C320        H331   1.084       .  S
C321        C322   1.403       .  A
C321        H332   1.084       .  S
C322        C323   1.397       .  A
C323        C324   1.408   1_565  A
C323        H333   1.084       .  S
C324        C325   1.409       .  A
C325        H334   1.084       .  S
C326        C327   1.406   1_545  A
C326        H335   1.084       .  S
C327        C328   1.406       .  A
C328        H336   1.084       .  S
C337        C338   1.398       .  A
C337        C342   1.404       .  A
C337        H353   1.084       .  S
C338        C339   1.403       .  A
C338        H354   1.084       .  S
C339        C349   1.401   1_545  A
C339        C340   1.413       .  A
C340        C346   1.410   1_545  A
C340        C341   1.408       .  A
C341        C343   1.413       .  A
C341        C342   1.409       .  A
C342        C350   1.398       .  A
C343        C352   1.401       .  A
C343        C344   1.402   1_545  A
C344        C345   1.397       .  A
C344        H355   1.084       .  S
C345        C346   1.402       .  A
C345        H356   1.084       .  S
C346        C347   1.397       .  A
C347        C348   1.403       .  A
C347        H357   1.084       .  S
C348        C349   1.404       .  A
C349        H358   1.084       .  S
C350        C351   1.409       .  A
C350        H359   1.084       .  S
C351        C352   1.405       .  A
C352        H360   1.084       .  S
C361        C362   1.395       .  A
C361        C366   1.402   1_554  A
C361        H377   1.084       .  S
C362        C363   1.402   1_554  A
C362        H378   1.084       .  S
C363        C373   1.396       .  A
C363        C364   1.411       .  A
C364        C370   1.412       .  A
C364        C365   1.407       .  A
C365        C367   1.411       .  A
C365        C366   1.411       .  A
C366        C374   1.396       .  A
C367        C376   1.399       .  A
C367        C368   1.403       .  A
C368        C369   1.398       .  A
C368        H379   1.084       .  S
C369        C370   1.403       .  A
C369        H380   1.084       .  S
C370        C371   1.400       .  A
C371        C372   1.405       .  A
C371        H381   1.084       .  S
C372        C373   1.402       .  A
C373        H382   1.085       .  S
C374        C375   1.404       .  A
C374        H383   1.084       .  S
C375        C376   1.406       .  A
C376        H384   1.084       .  S
C385        C386   1.398       .  A
C385        C390   1.403       .  A
C385        H401   1.084       .  S
C386        C387   1.404       .  A
C386        H402   1.084   1_655  S
C387        C397   1.401       .  A
C387        C388   1.411       .  A
C388        C394   1.411       .  A
C388        C389   1.409       .  A
C389        C391   1.411       .  A
C389        C390   1.411       .  A
C390        C398   1.401       .  A
C391        C400   1.399       .  A
C391        C392   1.403       .  A
C392        C393   1.397       .  A
C392        H403   1.083       .  S
C393        C394   1.402       .  A
C393        H404   1.084       .  S
C394        C395   1.399       .  A
C395        C396   1.405       .  A
C395        H405   1.084       .  S
C396        C397   1.409       .  A
C397        H406   1.084   1_655  S
C398        C399   1.407       .  A
C398        H407   1.084       .  S
C399        C400   1.405       .  A
C400        H408   1.084       .  S
C409        C410   1.400       .  A
C409        C414   1.404       .  A
C409        H425   1.084       .  S
C410        C411   1.404       .  A
C410        H426   1.083       .  S
C411        C421   1.406       .  A
C411        C412   1.412       .  A
C412        C418   1.410       .  A
C412        C413   1.411       .  A
C413        C415   1.411       .  A
C413        C414   1.411       .  A
C414        C422   1.404       .  A
C415        C424   1.399       .  A
C415        C416   1.403       .  A
C416        C417   1.396       .  A
C416        H427   1.084       .  S
C417        C418   1.403       .  A
C417        H428   1.084       .  S
C418        C419   1.398       .  A
C419        C420   1.408       .  A
C419        H429   1.084       .  S
C420        C421   1.408       .  A
C421        H430   1.084       .  S
C422        C423   1.409       .  A
C422        H431   1.084       .  S
C423        C424   1.408       .  A
C424        H432   1.084       .  S
C433        C434   1.398       .  A
C433        C438   1.403       .  A
C433        H449   1.084       .  S
C434        C435   1.403       .  A
C434        H450   1.084       .  S
C435        C445   1.401       .  A
C435        C436   1.411       .  A
C436        C442   1.410   1_554  A
C436        C437   1.409       .  A
C437        C439   1.411   1_554  A
C437        C438   1.411       .  A
C438        C446   1.401       .  A
C439        C448   1.399       .  A
C439        C440   1.403       .  A
C440        C441   1.396       .  A
C440        H451   1.084       .  S
C441        C442   1.402       .  A
C441        H452   1.084       .  S
C442        C443   1.398       .  A
C443        C444   1.407   1_556  A
C443        H453   1.084       .  S
C444        C445   1.409       .  A
C445        H454   1.083       .  S
C446        C447   1.407   1_554  A
C446        H455   1.084       .  S
C447        C448   1.408       .  A
C448        H456   1.084       .  S
