geometry optimzed in LAMMPS
_audit_creation_date              2020-12-01 
_audit_creation_method            'lammps2cif' 
_symmetry_space_group_name_H-M    'P1' 
_symmetry_Int_Tables_number       1 
_symmetry_cell_setting            triclinic 
loop_ 
_symmetry_equiv_pos_as_xyz 
  x,y,z 
_cell_length_a                    43.60409508 
_cell_length_b                    43.57259938773874 
_cell_length_c                    43.427887698480994 
_cell_angle_alpha                 89.80133371254308 
_cell_angle_beta                  89.63985942315328 
_cell_angle_gamma                 90.13845378640816 
loop_ 
_atom_site_label 
_atom_site_type_symbol 
_atom_site_fract_x 
_atom_site_fract_y 
_atom_site_fract_z 
_atom_site_charge 
O1          O  0.41621598  0.00142162  0.19844703    -0.75500
O2          O  0.45449316  0.99967801  0.16266358    -0.54400
C3          C  0.42602295  0.00079199  0.17044844     0.78200
O4          O  0.50201719  0.08422489  0.30365407    -0.60100
O5          O  0.50067752  0.04599201  0.33957703    -0.53100
C6          C  0.50125676  0.07452573  0.33172042     0.70300
O7          O  0.50026608  0.08453554  0.19903869    -0.74600
O8          O  0.00084767  0.04516995  0.16198978    -0.55200
C9          C  0.50000037  0.07488708  0.17098291     0.76300
O10         O  0.41528778  0.99874082  0.30173418    -0.59800
O11         O  0.45273580  0.49989929  0.34048137    -0.52900
C12         C  0.42407749  0.99883826  0.32986478     0.72900
Zr13       Zr  0.43695440  0.99991588  0.25028380     2.54700
O14         O  0.39981578  0.04152361  0.24967992    -0.80400
O15         O  0.39818053  0.45720974  0.24901252    -0.93800
Zr16       Zr  0.50180805  0.06362292  0.25141522     2.64700
O17         O  0.46041274  0.10097282  0.25346864    -0.98700
O18         O  0.03753481  0.10385272  0.24779629    -0.80800
O19         O  0.46913388  0.03272707  0.22101399    -0.84100
O20         O  0.46854380  0.03186950  0.28076796    -2.18900
O21         O  0.00023203  0.41477682  0.30360684    -0.67500
O22         O  0.49946347  0.45330650  0.34064955    -0.52100
C23         C  0.99925898  0.42448100  0.33155261     0.71200
O24         O  0.08346445  0.50242533  0.19744721    -0.60400
O25         O  0.04763842  0.99876036  0.16208034    -0.52400
C26         C  0.07368998  0.50188913  0.16948401     0.73000
O27         O  0.08558303  0.50339997  0.30195500    -0.71800
O28         O  0.04827395  0.50161236  0.33870541    -0.50500
C29         C  0.07666565  0.50266276  0.33027480     0.74400
O30         O  0.00392111  0.41371785  0.19992171    -0.67200
O31         O  0.00158747  0.45180809  0.16410024    -0.54400
C32         C  0.00327712  0.42337321  0.17184943     0.72800
Zr33       Zr  0.00309227  0.43555350  0.25157034     2.77500
O34         O  0.04781554  0.40219772  0.25258391    -0.97900
O35         O  0.47276002  0.38883343  0.24982080    -0.78700
Zr36       Zr  0.06379709  0.50337007  0.25029436     2.70100
O37         O  0.10679799  0.46791403  0.24891868    -0.80000
O38         O  0.10337187  0.03976796  0.24737465    -0.99100
Zr39       Zr  0.00081740  0.99824723  0.19162010     2.21500
Zr40       Zr  0.50066204  0.50061737  0.31161703     2.11100
O41         O  0.03422606  0.46898343  0.28088070    -2.47800
O42         O  0.03391346  0.46870345  0.22105002    -0.79800
O43         O  0.46891413  0.46678149  0.28240732    -0.72000
O44         O  0.03308301  0.03160679  0.22031829    -2.32900
O45         O  0.46845840  0.46576727  0.22305672    -2.29100
O46         O  0.03305955  0.03195038  0.27998326    -0.73700
H47         H  0.45591889  0.04442254  0.29399917     0.78300
H48         H  0.04553835  0.04428819  0.20693244     0.79400
H49         H  0.04736222  0.45705667  0.29412593     0.81600
H50         H  0.45626993  0.45269065  0.21004029     0.79200
H51         H  0.05716036  0.09333659  0.24336049     0.42200
H52         H  0.10008502  0.05203854  0.26625042     0.41200
H53         H  0.09955930  0.45062249  0.23611798     0.40900
H54         H  0.05605696  0.40412548  0.27368607     0.38800
H55         H  0.45124945  0.39566777  0.25221199     0.41900
H56         H  0.37872099  0.46686179  0.25571976     0.36700
H57         H  0.37971584  0.03122080  0.24728534     0.42800
H58         H  0.47057359  0.12097093  0.24952066     0.39200
H59         H  0.03923123  0.38116703  0.25183168     0.44200
H60         H  0.40345148  0.44287029  0.26587409     0.42900
H61         H  0.44822764  0.09706570  0.23472583     0.43000
H62         H  0.12313405  0.02918249  0.25077541     0.43400
O63         O  0.49894529  0.19738874  0.08717596    -0.75500
O64         O  0.99874441  0.16103844  0.04760473    -0.54400
C65         C  0.49863155  0.16959531  0.07730598     0.78200
O66         O  0.41471131  0.30147320  0.00250115    -0.60100
O67         O  0.45262357  0.33743212  0.00278327    -0.53100
C68         C  0.42423766  0.32948293  0.00217816     0.70300
O69         O  0.41566897  0.19803873  0.00361205    -0.74600
O70         O  0.45303667  0.16174548  0.00148203    -0.55200
C71         C  0.42470698  0.17000072  0.00286995     0.76300
O72         O  0.50646479  0.30076952  0.08793054    -0.59800
O73         O  0.50176088  0.33719620  0.05067661    -0.52900
C74         C  0.50493298  0.32890948  0.07893040     0.72900
Zr75       Zr  0.50292509  0.24916461  0.06656112     2.54700
O76         O  0.46602166  0.25174456  0.10884445    -0.80400
O77         O  0.04744418  0.24522329  0.09974562    -0.93800
Zr78       Zr  0.43618958  0.24984397  0.00527953     2.64700
O79         O  0.40269796  0.24863729  0.05044163    -0.98700
O80         O  0.39602868  0.24600920  0.46650462    -0.80800
O81         O  0.46932365  0.21954304  0.03573206    -0.84100
O82         O  0.46873048  0.27943923  0.03708618    -2.18900
O83         O  0.08639204  0.30014482  0.49895740    -0.67500
O84         O  0.04801878  0.33681738  0.00038588    -0.52100
C85         C  0.07730837  0.32820266  0.50058849     0.71200
O86         O  0.99608091  0.19921405  0.41343053    -0.60400
O87         O  0.99815017  0.16280892  0.45118181    -0.52400
C88         C  0.99673599  0.17110444  0.42273831     0.73000
O89         O  0.99703287  0.30293580  0.41578113    -0.71800
O90         O  0.49914303  0.33788923  0.45482475    -0.50500
C91         C  0.99840417  0.33067641  0.42589573     0.74400
O92         O  0.08475695  0.19638001  0.99404961    -0.67200
O93         O  0.04660948  0.16070756  0.99732725    -0.54400
C94         C  0.07519474  0.16876435  0.49585326     0.72800
Zr95       Zr  0.06427278  0.24860204  0.99690268     2.77500
O96         O  0.10115554  0.24934555  0.45449356    -0.97900
O97         O  0.10622835  0.24617586  0.03354668    -0.78700
Zr98       Zr  0.99724104  0.25054890  0.43595794     2.73700
O99         O  0.03563667  0.25172600  0.39508724    -0.80000
O100        O  0.45881959  0.25062504  0.39857881    -0.99100
Zr101      Zr  0.99947014  0.19032033  0.00014859     2.21500
Zr102      Zr  0.50010536  0.30889099  0.00289936     2.11100
O103        O  0.03178883  0.27937840  0.46640578    -2.47800
O104        O  0.03106040  0.21973155  0.46540066    -0.79800
O105        O  0.03480473  0.27829366  0.03185245    -0.72000
O106        O  0.46761991  0.22053582  0.46980418    -2.32900
O107        O  0.03436654  0.21845804  0.03142093    -2.29100
O108        O  0.46762169  0.27968348  0.47027744    -0.73700
H109        H  0.45675482  0.29262503  0.05030897     0.78300
H110        H  0.45460938  0.20736758  0.45763974     0.79400
H111        H  0.04402555  0.29275927  0.45343668     0.81600
H112        H  0.04731068  0.20481240  0.04313125     0.79200
H113        H  0.40664355  0.24709161  0.44632012     0.42200
H114        H  0.44615982  0.23239091  0.40363940     0.41200
H115        H  0.04899645  0.23389865  0.39939140     0.40900
H116        H  0.09679401  0.23035576  0.44282478     0.38800
H117        H  0.12331352  0.23646647  0.02207716     0.41900
H118        H  0.05455658  0.22370512  0.09837986     0.36700
H119        H  0.47866366  0.25320804  0.12764637     0.42800
H120        H  0.41254124  0.26229580  0.06564433     0.39200
H121        H  0.09412204  0.26609784  0.44083340     0.44200
H122        H  0.03835142  0.24686570  0.12061763     0.42900
H123        H  0.38402979  0.25979858  0.04404970     0.43000
H124        H  0.44568209  0.26826645  0.40420856     0.43400
O125        O  0.30173246  0.08588877  0.00145201    -0.75500
O126        O  0.33735437  0.04775477  0.00157861    -0.54400
C127        C  0.32965144  0.07619309  0.00168613     0.78200
O128        O  0.19767486  0.49986847  0.08641228    -0.60100
O129        O  0.16336450  0.00049316  0.04815317    -0.53100
C130        C  0.17113261  0.00070693  0.07663313     0.70300
O131        O  0.30123722  0.49739660  0.08700434    -0.74600
O132        O  0.33768507  0.49613816  0.04933669    -0.55200
C133        C  0.33073534  0.00034446  0.07732285     0.76300
O134        O  0.19706738  0.08372640  0.99749044    -0.59800
O135        O  0.16191025  0.04509364  0.99935942    -0.52900
C136        C  0.16915922  0.07360474  0.99801383     0.72900
Zr137      Zr  0.25004148  0.06423822  0.99902201     2.54700
O138        O  0.24618805  0.10700860  0.03482035    -0.80400
O139        O  0.25372756  0.10127098  0.45790231    -0.93800
Zr140      Zr  0.24965660  0.49894608  0.06529090     2.64700
O141        O  0.25329276  0.04425188  0.10102207    -0.98700
O142        O  0.24700203  0.45941976  0.10489797    -0.80800
O143        O  0.28013020  0.03370771  0.03289595    -0.84100
O144        O  0.22094199  0.03288097  0.03292683    -2.18900
O145        O  0.19928193  0.00270945  0.41469035    -0.67500
O146        O  0.16331685  0.00003672  0.45282534    -0.52100
C147        C  0.17059301  0.50220271  0.42612777     0.71200
O148        O  0.30126853  0.41320173  0.99803482    -0.60400
O149        O  0.33730885  0.45103884  0.99907516    -0.52400
C150        C  0.32940609  0.42297170  0.49926317     0.73000
O151        O  0.19835968  0.41348860  0.00052927    -0.71800
O152        O  0.16282071  0.45169499  0.00045532    -0.50500
C153        C  0.17069558  0.42357193  0.50167792     0.74400
O154        O  0.30321608  0.99952001  0.41625272    -0.67200
O155        O  0.33810367  0.49883881  0.45514549    -0.54400
C156        C  0.33048324  0.49883827  0.42668059     0.72800
Zr157      Zr  0.25097668  0.00066433  0.43618798     2.77500
O158        O  0.24914025  0.46125984  0.39816423    -0.97900
O159        O  0.25399232  0.03993829  0.39624039    -0.78700
Zr160      Zr  0.25006540  0.43503130  0.00010073     2.70100
O161        O  0.24868778  0.39499520  0.46341728    -0.80000
O162        O  0.25377136  0.39626180  0.04044271    -0.99100
Zr163      Zr  0.30921185  0.49896403  0.00147952     2.21500
Zr164      Zr  0.19241481  0.99911582  0.00072269     2.11100
O165        O  0.22071899  0.46741306  0.46902878    -2.47800
O166        O  0.28000141  0.46757786  0.46919391    -0.79800
O167        O  0.22088709  0.03314363  0.46779575    -0.72000
O168        O  0.27933941  0.46610972  0.03361928    -2.32900
O169        O  0.28039259  0.03325821  0.46826434    -2.29100
O170        O  0.22011395  0.46625905  0.03330450    -0.73700
H171        H  0.20750201  0.04556714  0.04515050     0.78300
H172        H  0.29220798  0.45316961  0.04612161     0.79400
H173        H  0.20749449  0.45506113  0.45632609     0.81600
H174        H  0.29378422  0.04592766  0.45583899     0.79200
H175        H  0.25430865  0.44060087  0.09449685     0.42200
H176        H  0.23348063  0.39632900  0.05078494     0.41200
H177        H  0.26123306  0.40302058  0.44608177     0.40900
H178        H  0.23061427  0.44892522  0.40301294     0.38800
H179        H  0.26493696  0.05728684  0.40593902     0.41900
H180        H  0.24718468  0.12112165  0.46675734     0.36700
H181        H  0.26552255  0.10659098  0.04663496     0.42800
H182        H  0.23757872  0.05882627  0.09361154     0.39200
H183        H  0.24389543  0.47244802  0.37903695     0.44200
H184        H  0.23680475  0.09533709  0.44401798     0.42900
H185        H  0.24487537  0.03608334  0.12062813     0.43000
H186        H  0.25453705  0.37646870  0.02933792     0.43400
C187        C  0.37149016  0.34670825  0.98909583    -0.26500
C188        C  0.40062207  0.35402740  0.00064952    -0.14600
C189        C  0.40743618  0.38490987  0.50903200     0.36000
C190        C  0.38389191  0.40695926  0.50759610    -0.26000
C191        C  0.35401607  0.39915091  0.49839308    -0.15200
C192        C  0.34826545  0.36876384  0.98717543     0.37100
N193        N  0.31929482  0.36027400  0.97429432    -0.89500
H194        H  0.36664557  0.32367995  0.98109172     0.18200
H195        H  0.38878725  0.43025506  0.51470408     0.18200
N196        N  0.43711059  0.39355615  0.52039303    -0.88500
H197        H  0.31023221  0.34216573  0.98736514     0.35600
H198        H  0.32314218  0.35229656  0.95192254     0.40700
H199        H  0.44031156  0.38198094  0.54125059     0.40300
H200        H  0.43783652  0.41698479  0.52548369     0.35200
C201        C  0.40622774  0.11814978  0.49036981    -0.26500
C202        C  0.40050372  0.14584111  0.00360401    -0.14600
C203        C  0.37036904  0.15216962  0.01422100     0.36000
C204        C  0.34778546  0.12921469  0.01289361    -0.26000
C205        C  0.35457039  0.09959190  0.00224501    -0.15200
C206        C  0.38304226  0.09569744  0.48846585     0.37100
N207        N  0.38775906  0.06875361  0.47003135    -0.89500
H208        H  0.42750953  0.11488572  0.47779279     0.18200
H209        H  0.32481176  0.13439465  0.02095820     0.18200
N210        N  0.36284018  0.18164781  0.02700396    -0.88500
H211        H  0.40975968  0.06877885  0.46031045     0.35600
H212        H  0.37233956  0.06964412  0.45170530     0.40700
H213        H  0.37522523  0.18404077  0.04740125     0.40300
H214        H  0.33964718  0.18270560  0.03314856     0.35200
C215        C  0.09367432  0.38272127  0.49272636    -0.26500
C216        C  0.10117693  0.35264943  0.50174206    -0.14600
C217        C  0.13140791  0.34641952  0.51159821     0.36000
C218        C  0.15347155  0.36988487  0.51091011    -0.26000
C219        C  0.14614965  0.39982531  0.50139737    -0.15200
C220        C  0.11578027  0.40628003  0.49213227     0.37100
N221        N  0.10771874  0.43570904  0.97835741    -0.89500
H222        H  0.07011085  0.38773267  0.98403743     0.18200
H223        H  0.17650450  0.36478549  0.51858375     0.18200
N224        N  0.13954975  0.31654819  0.52309269    -0.88500
H225        H  0.08411118  0.43748250  0.47649815     0.35600
H226        H  0.11933674  0.44077335  0.46121439     0.40700
H227        H  0.12715377  0.31291508  0.54348104     0.40300
H228        H  0.16129296  0.31622232  0.03058472     0.35200
C229        C  0.15023999  0.12521978  0.98282140    -0.26500
C230        C  0.14390332  0.09662880  0.99646225    -0.14600
C231        C  0.11398828  0.09113171  0.00844819     0.36000
C232        C  0.09177215  0.11461087  0.00702957    -0.26000
C233        C  0.09879837  0.14422216  0.49460533    -0.15200
C234        C  0.12810268  0.14967310  0.48159911     0.37100
N235        N  0.13545802  0.17858738  0.46755799    -0.89500
H236        H  0.17270458  0.12973095  0.97296089     0.18200
H237        H  0.06921822  0.11051809  0.01684864     0.18200
N238        N  0.10644148  0.06239987  0.02310373    -0.88500
H239        H  0.14233824  0.17190208  0.94365160     0.35600
H240        H  0.15440802  0.18639808  0.97760115     0.40700
H241        H  0.10490472  0.04581647  0.00584808     0.40300
H242        H  0.08670109  0.06406239  0.53411248     0.35200
C243        C  0.34741877  0.00695044  0.37173650    -0.26500
C244        C  0.35534666  0.49874126  0.40345517    -0.14600
C245        C  0.38305066  0.48248408  0.40780547     0.36000
C246        C  0.40545419  0.48285222  0.38432438    -0.26000
C247        C  0.39995412  0.99944056  0.35424741    -0.15200
C248        C  0.36869761  0.00588635  0.34781926     0.37100
N249        N  0.35740879  0.01167384  0.31743484    -0.89500
H250        H  0.32386904  0.01234197  0.36601396     0.18200
H251        H  0.42660219  0.47023099  0.38745386     0.18200
N252        N  0.38779290  0.46454117  0.43523679    -0.88500
H253        H  0.36055942  0.99212890  0.30390498     0.35600
H254        H  0.36904255  0.03047919  0.30794648     0.40700
H255        H  0.39161332  0.47976982  0.45335940     0.40300
H256        H  0.40778089  0.45147488  0.43324651     0.35200
C257        C  0.09240461  0.50603701  0.38590999    -0.26500
C258        C  0.10084481  0.50287503  0.35471728    -0.14600
C259        C  0.13243122  0.49994735  0.34749035     0.36000
C260        C  0.15436041  0.50021325  0.37100324    -0.26000
C261        C  0.14597366  0.50295778  0.40219679    -0.15200
C262        C  0.11444866  0.50615098  0.40951249     0.37100
N263        N  0.10452261  0.50996820  0.44076869    -0.89500
H264        H  0.06847127  0.50855542  0.39221641     0.18200
H265        H  0.17771280  0.98853893  0.36404589     0.18200
N266        N  0.14101778  0.98383128  0.31665905    -0.88500
H267        H  0.08902012  0.49236463  0.44607885     0.35600
H268        H  0.09285588  0.53084533  0.44238179     0.40700
H269        H  0.15470169  0.47562881  0.31472821     0.40300
H270        H  0.15776606  0.51422873  0.31099464     0.35200
C271        C  0.12785419  0.01316210  0.15150771    -0.26500
C272        C  0.09717179  0.50221878  0.14460538    -0.14600
C273        C  0.09187640  0.48964107  0.11508481     0.36000
C274        C  0.11582468  0.48952308  0.09318971    -0.26000
C275        C  0.14634271  0.00146837  0.10002308    -0.15200
C276        C  0.15116448  0.01467109  0.12925511     0.37100
N277        N  0.17953306  0.03001437  0.13615354    -0.89500
H278        H  0.13180192  0.02321417  0.17393028     0.18200
H279        H  0.11196613  0.47918515  0.07088592     0.18200
N280        N  0.06258788  0.47649850  0.10754616    -0.88500
H281        H  0.17947977  0.03814876  0.15877237     0.35600
H282        H  0.18110600  0.04929667  0.12181947     0.40700
H283        H  0.05946790  0.45703328  0.12137074     0.40300
H284        H  0.06239971  0.46890385  0.08473084     0.35200
C285        C  0.37304699  0.98954742  0.15318227    -0.26500
C286        C  0.40243381  0.00075614  0.14590080    -0.14600
C287        C  0.40737614  0.50390251  0.11636113     0.36000
C288        C  0.38408986  0.50255301  0.09404038    -0.26000
C289        C  0.35529754  0.99985757  0.10108540    -0.15200
C290        C  0.34960397  0.98867356  0.13125072     0.37100
N291        N  0.32030028  0.97569446  0.13947519    -0.89500
H292        H  0.36841033  0.98070236  0.17610031     0.18200
H293        H  0.38956971  0.50880578  0.07047284     0.18200
N294        N  0.43779751  0.51338684  0.10747000    -0.88500
H295        H  0.31975378  0.96918511  0.16267150     0.35600
H296        H  0.31759940  0.95556284  0.12672716     0.40700
H297        H  0.44160156  0.04354801  0.12045572     0.40300
H298        H  0.43923432  0.51700882  0.08369137     0.35200
C299        C  0.51131291  0.11689861  0.40804407    -0.26500
C300        C  0.99655920  0.14651517  0.39901612    -0.14600
C301        C  0.98295672  0.15084079  0.36983390     0.36000
C302        C  0.98522079  0.12759092  0.34757986    -0.26000
C303        C  0.50048022  0.09834261  0.35628415    -0.15200
C304        C  0.51223670  0.09314782  0.38611815     0.37100
N305        N  0.52577604  0.06412419  0.39389666    -0.89500
H306        H  0.52087564  0.11289024  0.43066670     0.18200
H307        H  0.97471457  0.13110466  0.32530289     0.18200
N308        N  0.96639316  0.17852081  0.36298428    -0.88500
H309        H  0.53300759  0.06394339  0.41680644     0.35600
H310        H  0.54550449  0.06172027  0.38032488     0.40700
H311        H  0.94717940  0.17911951  0.37750127     0.40300
H312        H  0.95809117  0.17814473  0.34044887     0.35200
C313        C  0.50956742  0.40694686  0.38518292    -0.26500
C314        C  0.99751239  0.40113798  0.35625216    -0.14600
C315        C  0.98217639  0.37295311  0.35167749     0.36000
C316        C  0.98292590  0.35048513  0.37478432    -0.26000
C317        C  0.99796891  0.35569866  0.40274633    -0.15200
C318        C  0.51084860  0.38421367  0.40810715     0.37100
N319        N  0.52784346  0.38972240  0.43580679    -0.89500
H320        H  0.52167891  0.42840633  0.38858485     0.18200
H321        H  0.97128194  0.32883129  0.37104652     0.18200
N322        N  0.96543961  0.36738820  0.32380680    -0.88500
H323        H  0.53688151  0.41197396  0.43590978     0.35600
H324        H  0.54655950  0.37477148  0.43572365     0.40700
H325        H  0.94722790  0.38294846  0.32319687     0.40300
H326        H  0.95566103  0.34545558  0.32404458     0.35200
C327        C  0.50047612  0.38408418  0.09432363    -0.26500
C328        C  0.50630155  0.35344323  0.10278241    -0.14600
C329        C  0.51277340  0.34689423  0.13400229     0.36000
C330        C  0.01592814  0.37044959  0.15443314    -0.26000
C331        C  0.00475579  0.39979557  0.14705095    -0.15200
C332        C  0.99454853  0.40545063  0.11665331     0.37100
N333        N  0.98235087  0.43487638  0.10803962    -0.89500
H334        H  0.49573743  0.38989545  0.07054898     0.18200
H335        H  0.02404507  0.36585174  0.17751823     0.18200
N336        N  0.52064873  0.31649122  0.14378246    -0.88500
H337        H  0.97311032  0.43413005  0.08589438     0.35600
H338        H  0.00072559  0.45027977  0.10678078     0.40700
H339        H  0.50468186  0.30941545  0.16042422     0.40300
H340        H  0.54224875  0.31731844  0.15407496     0.35200
C341        C  0.48435837  0.12623582  0.15214340    -0.26500
C342        C  0.49888036  0.09819900  0.14613446    -0.14600
C343        C  0.01031373  0.09146752  0.11481917     0.36000
C344        C  0.00873671  0.11484152  0.09247123    -0.26000
C345        C  0.49714886  0.14480874  0.10072862    -0.15200
C346        C  0.48326143  0.14954384  0.12985549     0.37100
N347        N  0.46791499  0.17791209  0.13672733    -0.89500
H348        H  0.47359443  0.12995723  0.17437665     0.18200
H349        H  0.01843040  0.11083979  0.06980470     0.18200
N350        N  0.02443583  0.06260306  0.10734515    -0.88500
H351        H  0.45932199  0.17778833  0.15926184     0.35600
H352        H  0.44896850  0.17955486  0.12218448     0.40700
H353        H  0.04448037  0.06078210  0.12031637     0.40300
H354        H  0.03119697  0.06212842  0.08420793     0.35200
O355        O  0.41559481  0.99905779  0.69926762    -0.75500
O356        O  0.45366150  0.99834767  0.66325290    -0.54400
C357        C  0.42521740  0.99863288  0.67112260     0.78200
O358        O  0.50068649  0.08645736  0.80256669    -0.60100
O359        O  0.50167646  0.04863563  0.83895837    -0.53100
C360        C  0.50148089  0.07703739  0.83070023     0.70300
O361        O  0.49705068  0.08646367  0.69884671    -0.74600
O362        O  0.99985414  0.04618693  0.66165751    -0.55200
C363        C  0.49836131  0.07650046  0.67098729     0.76300
O364        O  0.41642832  0.99586366  0.80291122    -0.59800
O365        O  0.45311758  0.50225417  0.83914694    -0.52900
C366        C  0.42542814  0.99773522  0.83092913     0.72900
Zr367      Zr  0.43718591  0.99882983  0.75109350     2.54700
O368        O  0.39925860  0.03975890  0.75183924    -0.80400
O369        O  0.39812772  0.46046030  0.75271349    -0.93800
Zr370      Zr  0.49891391  0.06516257  0.75079493     2.64700
O371        O  0.45635276  0.10111914  0.75391039    -0.98700
O372        O  0.04026266  0.10347247  0.74810994    -0.80800
O373        O  0.46728928  0.03270388  0.72081850    -0.84100
O374        O  0.46762611  0.03233287  0.78109634    -2.18900
O375        O  0.99464682  0.41386530  0.80298227    -0.67500
O376        O  0.49668051  0.45375470  0.83962801    -0.52100
C377        C  0.99471291  0.42333837  0.83103473     0.71200
O378        O  0.08432340  0.49945100  0.69961150    -0.60400
O379        O  0.04818789  0.99978438  0.66234178    -0.52400
C380        C  0.07493061  0.49920345  0.67158474     0.73000
O381        O  0.08489612  0.50031238  0.80241520    -0.71800
O382        O  0.04738609  0.49823672  0.83899956    -0.50500
C383        C  0.07583112  0.49884067  0.83059045     0.74400
O384        O  0.00331593  0.41464456  0.69892150    -0.67200
O385        O  0.00039747  0.45261742  0.66307412    -0.54400
C386        C  0.00255968  0.42426167  0.67079458     0.72800
Zr387      Zr  0.00011205  0.43509094  0.75122972     2.77500
O388        O  0.04232431  0.39897693  0.75596366    -0.97900
O389        O  0.45835555  0.39839635  0.74817383    -0.78700
Zr390      Zr  0.06277753  0.50144807  0.75128193     2.70100
O391        O  0.10541350  0.46553848  0.75183176    -0.80000
O392        O  0.10438237  0.04031691  0.74963578    -0.99100
Zr393      Zr  0.00086510  0.99941895  0.69138636     2.21500
Zr394      Zr  0.50054393  0.50117959  0.81035215     2.11100
O395        O  0.03214032  0.46729324  0.78100076    -2.47800
O396        O  0.03239743  0.46763351  0.72153239    -0.79800
O397        O  0.46736561  0.46899233  0.78128802    -0.72000
O398        O  0.03344541  0.03264883  0.72001895    -2.32900
O399        O  0.46691757  0.46801639  0.72158901    -2.29100
O400        O  0.03338883  0.03290059  0.77985642    -0.73700
H401        H  0.45473567  0.04448140  0.79443807     0.78300
H402        H  0.04590050  0.04529809  0.70659376     0.79400
H403        H  0.04485457  0.45474382  0.79408665     0.81600
H404        H  0.45425938  0.45548770  0.70843766     0.79200
H405        H  0.04771288  0.10393056  0.72652913     0.42200
H406        H  0.09785881  0.05478497  0.76593390     0.41200
H407        H  0.09591271  0.44537086  0.74748484     0.40900
H408        H  0.03270985  0.37852297  0.75363526     0.38800
H409        H  0.44158576  0.40674183  0.76112047     0.41900
H410        H  0.39882681  0.45116090  0.73195532     0.36700
H411        H  0.41054300  0.05808672  0.75902838     0.42800
H412        H  0.46611344  0.12162755  0.75253548     0.39200
H413        H  0.05455296  0.40188288  0.73688435     0.44200
H414        H  0.37816364  0.47121744  0.75355384     0.42900
H415        H  0.44539661  0.09879874  0.73415798     0.43000
H416        H  0.12293441  0.03030421  0.75798843     0.43400
O417        O  0.49793979  0.19718769  0.58598198    -0.75500
O418        O  0.99823850  0.16172528  0.54753354    -0.54400
C419        C  0.49939554  0.16933544  0.57630223     0.78200
O420        O  0.41554118  0.30151771  0.50151595    -0.60100
O421        O  0.45357774  0.33738186  0.50173088    -0.53100
C422        C  0.42511231  0.32955476  0.50122933     0.70300
O423        O  0.41619003  0.19777698  0.50754623    -0.74600
O424        O  0.45379064  0.16182090  0.50272126    -0.55200
C425        C  0.42553721  0.16980879  0.50596579     0.76300
O426        O  0.50465662  0.30088860  0.58752177    -0.59800
O427        O  0.50361695  0.33715886  0.54972097    -0.52900
C428        C  0.50488673  0.32897229  0.57817738     0.72900
Zr429      Zr  0.50341003  0.24921580  0.56595002     2.54700
O430        O  0.46946514  0.25171789  0.61057832    -0.80400
O431        O  0.04770812  0.24666231  0.59894382    -0.93800
Zr432      Zr  0.43694702  0.24972251  0.50419978     2.64700
O433        O  0.40015574  0.25165926  0.54657715    -0.98700
O434        O  0.39145213  0.24824369  0.97197923    -0.80800
O435        O  0.46975339  0.21958987  0.53526247    -0.84100
O436        O  0.46936884  0.27936386  0.53612410    -2.18900
O437        O  0.08537824  0.30039605  0.00026152    -0.67500
O438        O  0.04900474  0.33648789  0.50114888    -0.52100
C439        C  0.07629640  0.32849740  0.00090987     0.71200
O440        O  0.99777679  0.19869362  0.91492669    -0.60400
O441        O  0.99833220  0.16196330  0.95229354    -0.52400
C442        C  0.99801811  0.17051954  0.92391469     0.73000
O443        O  0.99441593  0.30241573  0.91624352    -0.71800
O444        O  0.49739877  0.33875061  0.95594872    -0.50500
C445        C  0.99516731  0.33019542  0.92625221     0.74400
O446        O  0.08478371  0.19670340  0.49530670    -0.67200
O447        O  0.04677189  0.16085871  0.49777921    -0.54400
C448        C  0.07507062  0.16840429  0.99490766     0.72800
Zr449      Zr  0.06445855  0.24863644  0.49701398     2.77500
O450        O  0.09987272  0.25116898  0.95351269    -0.97900
O451        O  0.10523107  0.24556164  0.53489669    -0.78700
Zr452      Zr  0.99658475  0.25024920  0.93652214     2.73700
O453        O  0.03411201  0.25182149  0.89484358    -0.80000
O454        O  0.45558562  0.25033945  0.90125335    -0.99100
Zr455      Zr  0.99963280  0.19041867  0.49960440     2.21500
Zr456      Zr  0.50115816  0.30860646  0.50204910     2.11100
O457        O  0.03120125  0.27938566  0.96659481    -2.47800
O458        O  0.03060587  0.21965180  0.96575403    -0.79800
O459        O  0.03502539  0.27849182  0.53176966    -0.72000
O460        O  0.46657403  0.22089254  0.97035346    -2.32900
O461        O  0.03407695  0.21871464  0.53120901    -2.29100
O462        O  0.46627740  0.28020214  0.97125789    -0.73700
H463        H  0.45727838  0.29256167  0.54921279     0.78300
H464        H  0.45366205  0.20786390  0.95797988     0.79400
H465        H  0.04314657  0.29286556  0.95348154     0.81600
H466        H  0.04689311  0.20514426  0.54315317     0.79200
H467        H  0.37500382  0.25867644  0.98374644     0.42200
H468        H  0.44255884  0.23292992  0.90806753     0.41200
H469        H  0.04880403  0.23528168  0.89986350     0.40900
H470        H  0.09269614  0.23504698  0.93925129     0.38800
H471        H  0.09509917  0.25067084  0.55467750     0.41900
H472        H  0.05043899  0.22465390  0.60392020     0.36700
H473        H  0.44856122  0.25149617  0.60182268     0.42800
H474        H  0.40465456  0.27109835  0.55740905     0.39200
H475        H  0.09503784  0.27070655  0.94290497     0.44200
H476        H  0.04050753  0.25596256  0.61844602     0.42900
H477        H  0.38017109  0.25526824  0.53651088     0.43000
H478        H  0.44330243  0.26876291  0.90624490     0.43400
O479        O  0.30184902  0.08702297  0.50363531    -0.75500
O480        O  0.33736483  0.04862707  0.50196902    -0.54400
C481        C  0.32973142  0.07712071  0.50309453     0.78200
O482        O  0.19854603  0.49882501  0.58817844    -0.60100
O483        O  0.16304642  0.00140940  0.54822552    -0.53100
C484        C  0.17095921  0.00130043  0.57669494     0.70300
O485        O  0.30158670  0.49950599  0.58820515    -0.74600
O486        O  0.33771442  0.50021784  0.55008245    -0.55200
C487        C  0.33008900  0.99873184  0.57730291     0.76300
O488        O  0.19770537  0.08547314  0.49745080    -0.59800
O489        O  0.16257068  0.04670397  0.49818210    -0.52900
C490        C  0.16985299  0.07521689  0.49721418     0.72900
Zr491      Zr  0.25017254  0.06504224  0.50054439     2.54700
O492        O  0.24635895  0.10407063  0.54035529    -0.80400
O493        O  0.25319102  0.09968520  0.95566912    -0.93800
Zr494      Zr  0.25022728  0.49939085  0.56670913     2.64700
O495        O  0.25173358  0.04183147  0.60269072    -0.98700
O496        O  0.25051253  0.45995999  0.60656219    -0.80800
O497        O  0.28007265  0.03350003  0.53353884    -0.84100
O498        O  0.22047100  0.03305728  0.53335958    -2.18900
O499        O  0.19990054  0.99996127  0.91479320    -0.67500
O500        O  0.16395523  0.99931385  0.95298663    -0.52100
C501        C  0.17129474  0.50064018  0.92415500     0.71200
O502        O  0.30138088  0.41374550  0.49823738    -0.60400
O503        O  0.33746184  0.45135791  0.50156936    -0.52400
C504        C  0.32923173  0.42263137  0.99795297     0.73000
O505        O  0.19859906  0.41399524  0.50131903    -0.71800
O506        O  0.16292251  0.45200542  0.50243840    -0.50500
C507        C  0.17045978  0.42321018  0.00038505     0.74400
O508        O  0.30426237  0.99626895  0.91686605    -0.67200
O509        O  0.33931779  0.49903148  0.95489032    -0.54400
C510        C  0.33193436  0.49948873  0.92637639     0.72800
Zr511      Zr  0.25156965  0.99825697  0.93638776     2.77500
O512        O  0.25214846  0.46005020  0.89683294    -0.97900
O513        O  0.25448556  0.03780152  0.89677920    -0.78700
Zr514      Zr  0.25011047  0.43552515  0.50181781     2.70100
O515        O  0.24913256  0.39789824  0.95835135    -0.80000
O516        O  0.25125389  0.39944916  0.54469589    -0.99100
Zr517      Zr  0.30918254  0.49950256  0.50242774     2.21500
Zr518      Zr  0.19187108  0.00005298  0.50050757     2.11100
O519        O  0.22103394  0.46710917  0.96734088    -2.47800
O520        O  0.28053730  0.46694025  0.96784447    -0.79800
O521        O  0.22103155  0.03153909  0.96687138    -0.72000
O522        O  0.27984629  0.46653689  0.53496660    -2.32900
O523        O  0.28062615  0.03184903  0.96758357    -2.29100
O524        O  0.22034975  0.46673925  0.53505154    -0.73700
H525        H  0.20708360  0.04560214  0.54574933     0.78300
H526        H  0.29295046  0.45375487  0.54739780     0.79400
H527        H  0.20790796  0.45467871  0.95457165     0.81600
H528        H  0.29401864  0.04420651  0.95480045     0.79200
H529        H  0.26552442  0.44459021  0.59919651     0.42200
H530        H  0.23236762  0.40385474  0.55664801     0.41200
H531        H  0.24781250  0.37768132  0.96875693     0.40900
H532        H  0.26611042  0.44421060  0.90516579     0.38800
H533        H  0.24703670  0.02758446  0.87790552     0.41900
H534        H  0.24325636  0.11866997  0.96318926     0.36700
H535        H  0.24340472  0.12353383  0.52893814     0.42800
H536        H  0.23747348  0.05754459  0.59465712     0.39200
H537        H  0.23157040  0.45046123  0.89791776     0.44200
H538        H  0.23870405  0.09128840  0.94037193     0.42900
H539        H  0.24132872  0.03337381  0.62118706     0.43000
H540        H  0.24739303  0.37919597  0.53518736     0.43400
C541        C  0.37167375  0.34665000  0.49025000    -0.26500
C542        C  0.40138294  0.35423142  0.50009898    -0.14600
C543        C  0.40649229  0.38449629  0.01026258     0.36000
C544        C  0.38310099  0.40658476  0.00834629    -0.26000
C545        C  0.35379758  0.39902945  0.99737345    -0.15200
C546        C  0.34808974  0.36847215  0.48955790     0.37100
N547        N  0.31819596  0.35913694  0.47969877    -0.89500
H548        H  0.36647804  0.32343491  0.48304074     0.18200
H549        H  0.38762072  0.42967701  0.01632895     0.18200
N550        N  0.43588010  0.39288942  0.02253869    -0.88500
H551        H  0.31056609  0.34152322  0.49428609     0.35600
H552        H  0.32011114  0.35025784  0.45743665     0.40700
H553        H  0.43857308  0.38107883  0.04334432     0.40300
H554        H  0.43658701  0.41627086  0.02782967     0.35200
C555        C  0.40742352  0.11612523  0.99334965    -0.26500
C556        C  0.40174903  0.14531297  0.50712603    -0.14600
C557        C  0.37383412  0.14945456  0.52335774     0.36000
C558        C  0.35062235  0.12711545  0.52128977    -0.26000
C559        C  0.35484242  0.10023440  0.50408062    -0.15200
C560        C  0.38494930  0.09293896  0.99261548     0.37100
N561        N  0.39293645  0.06288075  0.98163878    -0.89500
H562        H  0.43041195  0.11101564  0.98531228     0.18200
H563        H  0.32926562  0.13045228  0.53371172     0.18200
N564        N  0.36929307  0.17610808  0.54228060    -0.88500
H565        H  0.41633843  0.06161945  0.97641803     0.35600
H566        H  0.38129743  0.05936532  0.96096657     0.40700
H567        H  0.38512955  0.17503563  0.56023297     0.40300
H568        H  0.34751954  0.17574794  0.55250716     0.35200
C569        C  0.09309739  0.38269715  0.99178160    -0.26500
C570        C  0.10020297  0.35290794  0.00198865    -0.14600
C571        C  0.13026788  0.34676295  0.01239819     0.36000
C572        C  0.15253414  0.37002983  0.01127752    -0.26000
C573        C  0.14566908  0.39964672  0.00052005    -0.15200
C574        C  0.11549043  0.40598465  0.99047636     0.37100
N575        N  0.10745023  0.43650190  0.48178167    -0.89500
H576        H  0.07050013  0.38787163  0.48566564     0.18200
H577        H  0.17540883  0.36501836  0.01945553     0.18200
N578        N  0.13811144  0.31711103  0.02464818    -0.88500
H579        H  0.08448841  0.43667261  0.97260224     0.35600
H580        H  0.12000291  0.43873352  0.95780417     0.40700
H581        H  0.12564524  0.31407992  0.04508737     0.40300
H582        H  0.16274295  0.31574941  0.52900310     0.35200
C583        C  0.15044269  0.12667935  0.48228337    -0.26500
C584        C  0.14448178  0.09794297  0.49568282    -0.14600
C585        C  0.11488855  0.09204899  0.50823064     0.36000
C586        C  0.09248019  0.11528393  0.50755626    -0.26000
C587        C  0.09850954  0.14345762  0.99393412    -0.15200
C588        C  0.12803984  0.14837500  0.98126590     0.37100
N589        N  0.13563771  0.17674686  0.96627435    -0.89500
H590        H  0.17278529  0.13152854  0.47230194     0.18200
H591        H  0.07019160  0.11096711  0.51789649     0.18200
N592        N  0.10805108  0.06323100  0.52304137    -0.88500
H593        H  0.14175340  0.17463986  0.44465054     0.35600
H594        H  0.15439785  0.18783196  0.47894536     0.40700
H595        H  0.10594204  0.04670624  0.50579247     0.40300
H596        H  0.08467725  0.06339313  0.03331836     0.35200
C597        C  0.34981387  0.00830142  0.87359016    -0.26500
C598        C  0.35683214  0.50062467  0.90305448    -0.14600
C599        C  0.38653866  0.48860612  0.90824941     0.36000
C600        C  0.40827538  0.48938382  0.88424163    -0.26000
C601        C  0.40141877  0.99736153  0.85525902    -0.15200
C602        C  0.37140084  0.00855305  0.84986366     0.37100
N603        N  0.36204620  0.02106132  0.82084068    -0.89500
H604        H  0.32717428  0.01734092  0.86887908     0.18200
H605        H  0.43078457  0.47960042  0.88799312     0.18200
N606        N  0.39437165  0.47480788  0.93728416    -0.88500
H607        H  0.36219836  0.00373345  0.80426957     0.35600
H608        H  0.37716087  0.03865343  0.81445598     0.40700
H609        H  0.39636708  0.49249824  0.95335242     0.40300
H610        H  0.41600377  0.46454747  0.93606070     0.35200
C611        C  0.09282850  0.50601428  0.88523234    -0.26500
C612        C  0.10010187  0.49812074  0.85471051    -0.14600
C613        C  0.13080735  0.49015528  0.84756369     0.36000
C614        C  0.15352095  0.49194992  0.87024512    -0.26000
C615        C  0.14638071  0.50025818  0.90068586    -0.15200
C616        C  0.11545135  0.50697420  0.90817052     0.37100
N617        N  0.10677885  0.51514687  0.93893700    -0.89500
H618        H  0.06944273  0.51174242  0.89143393     0.18200
H619        H  0.17801383  0.98709154  0.86409529     0.18200
N620        N  0.14172120  0.98486025  0.81635252    -0.88500
H621        H  0.09027658  0.49941654  0.94667158     0.35600
H622        H  0.09670248  0.53688889  0.93835081     0.40700
H623        H  0.14833681  0.45716321  0.82002574     0.40300
H624        H  0.15599744  0.49353777  0.80842287     0.35200
C625        C  0.12802242  0.01537224  0.65134531    -0.26500
C626        C  0.09876306  0.49904262  0.64715756    -0.14600
C627        C  0.09362131  0.48617324  0.61781400     0.36000
C628        C  0.11718863  0.48700697  0.59557864    -0.26000
C629        C  0.14644821  0.00227852  0.60021835    -0.15200
C630        C  0.15115380  0.01669377  0.62890272     0.37100
N631        N  0.17915006  0.03304882  0.63500454    -0.89500
H632        H  0.13169139  0.02650497  0.67330105     0.18200
H633        H  0.11329425  0.47684018  0.57319962     0.18200
N634        N  0.06486409  0.47165570  0.61090603    -0.88500
H635        H  0.17913501  0.04179232  0.65739728     0.35600
H636        H  0.18000384  0.05195536  0.62012449     0.40700
H637        H  0.06278042  0.45235524  0.62515672     0.40300
H638        H  0.06474510  0.46360522  0.58825385     0.35200
C639        C  0.37135783  0.99033017  0.65429395    -0.26500
C640        C  0.40164636  0.99819162  0.64635394    -0.14600
C641        C  0.40518882  0.51636854  0.61803832     0.36000
C642        C  0.38185691  0.51487921  0.59585406    -0.26000
C643        C  0.35455133  0.99731995  0.60124819    -0.15200
C644        C  0.34792327  0.98946446  0.63231130     0.37100
N645        N  0.31751730  0.98035047  0.64165241    -0.89500
H646        H  0.36581857  0.98438286  0.67792387     0.18200
H647        H  0.38517620  0.52621029  0.57382246     0.18200
N648        N  0.43307828  0.53291183  0.61153535    -0.88500
H649        H  0.31640151  0.97635548  0.66539121     0.35600
H650        H  0.31279331  0.95935131  0.63109030     0.40700
H651        H  0.44386353  0.03537648  0.61647197     0.40300
H652        H  0.43276636  0.54198294  0.58921292     0.35200
C653        C  0.51472663  0.11993662  0.90596608    -0.26500
C654        C  0.99834635  0.14638741  0.89975720    -0.14600
C655        C  0.98772015  0.15228887  0.86958100     0.36000
C656        C  0.98972681  0.12924405  0.84716583    -0.26000
C657        C  0.50167445  0.10098415  0.85496410    -0.15200
C658        C  0.51584078  0.09645249  0.88380033     0.37100
N659        N  0.53207527  0.06848335  0.89017071    -0.89500
H660        H  0.52575958  0.11642350  0.92798543     0.18200
H661        H  0.98131719  0.13398234  0.82421639     0.18200
N662        N  0.97440836  0.18145632  0.86179577    -0.88500
H663        H  0.54115031  0.06879911  0.91239487     0.35600
H664        H  0.55078820  0.06751005  0.87502187     0.40700
H665        H  0.95397257  0.18350555  0.87434392     0.40300
H666        H  0.96844091  0.18227366  0.83853188     0.35200
C667        C  0.50204255  0.40923306  0.88656479    -0.26500
C668        C  0.99251225  0.40004751  0.85587040    -0.14600
C669        C  0.97878862  0.37106213  0.85105828     0.36000
C670        C  0.97974848  0.34890537  0.87453007    -0.26000
C671        C  0.99360180  0.35510659  0.90297210    -0.15200
C672        C  0.50316077  0.38699211  0.91010075     0.37100
N673        N  0.51570830  0.39491864  0.93954315    -0.89500
H674        H  0.51064634  0.43210082  0.89114297     0.18200
H675        H  0.96943127  0.32662726  0.87057535     0.18200
N676        N  0.96373497  0.36422517  0.82250902    -0.88500
H677        H  0.52154335  0.41819336  0.94030018     0.35600
H678        H  0.53619618  0.38276782  0.94175938     0.40700
H679        H  0.94472858  0.37871073  0.82080244     0.40300
H680        H  0.95523286  0.34176932  0.82259013     0.35200
C681        C  0.49627439  0.38335768  0.59420477    -0.26500
C682        C  0.50599842  0.35356551  0.60188689    -0.14600
C683        C  0.51567547  0.34770365  0.63235758     0.36000
C684        C  0.01207697  0.37052675  0.65430173    -0.26000
C685        C  0.00432591  0.40069374  0.64597398    -0.15200
C686        C  0.99744905  0.40702976  0.61470208     0.37100
N687        N  0.98788115  0.43712865  0.60508601    -0.89500
H688        H  0.48911153  0.38854771  0.57093116     0.18200
H689        H  0.01737619  0.36523351  0.67806351     0.18200
N690        N  0.52754987  0.31829835  0.64102615    -0.88500
H691        H  0.98101823  0.43700794  0.58205539     0.35600
H692        H  0.00698256  0.45156176  0.60599001     0.40700
H693        H  0.51393380  0.30958512  0.65895033     0.40300
H694        H  0.54976377  0.32140409  0.64941849     0.35200
C695        C  0.47898554  0.12500347  0.64869611    -0.26500
C696        C  0.49830940  0.09948884  0.64606506    -0.14600
C697        C  0.01084736  0.09276274  0.61493876     0.36000
C698        C  0.00918886  0.11607250  0.59260378    -0.26000
C699        C  0.49769686  0.14480494  0.59970404    -0.15200
C700        C  0.47834788  0.14764543  0.62571582     0.37100
N701        N  0.45805766  0.17346435  0.62862717    -0.89500
H702        H  0.46413528  0.12713356  0.66867926     0.18200
H703        H  0.01905912  0.11217182  0.56999522     0.18200
N704        N  0.02580902  0.06427370  0.60772718    -0.88500
H705        H  0.44559922  0.17223833  0.64924500     0.35600
H706        H  0.44210697  0.17214852  0.61079763     0.40700
H707        H  0.04551832  0.06286895  0.62125485     0.40300
H708        H  0.03326294  0.06410743  0.58479202     0.35200
O709        O  0.41417984  0.49840211  0.20055180    -0.75500
O710        O  0.45237539  0.49788366  0.16472193    -0.54400
C711        C  0.42387255  0.49783979  0.17243945     0.78200
O712        O  0.49977961  0.58643220  0.30327122    -0.60100
O713        O  0.50116190  0.54859505  0.33972040    -0.53100
C714        C  0.50071718  0.57694008  0.33134489     0.70300
O715        O  0.49938541  0.58554337  0.20004048    -0.74600
O716        O  0.99710954  0.54623472  0.16280059    -0.55200
C717        C  0.49918202  0.57580594  0.17208728     0.76300
O718        O  0.41525472  0.49610540  0.30428082    -0.59800
O719        O  0.45235828  0.99870490  0.33823363    -0.52900
C720        C  0.42445913  0.49808867  0.33226572     0.72900
Zr721      Zr  0.43613591  0.49810580  0.25230071     2.54700
O722        O  0.39631688  0.53704437  0.25480705    -0.80400
O723        O  0.39720865  0.96057222  0.24969029    -0.93800
Zr724      Zr  0.49854590  0.56430915  0.25187004     2.64700
O725        O  0.45444099  0.59850935  0.25264696    -0.98700
O726        O  0.03190040  0.60742435  0.24963519    -0.80800
O727        O  0.46632889  0.53214470  0.22208043    -0.84100
O728        O  0.46688517  0.53179688  0.28204189    -2.18900
O729        O  0.99592860  0.91326065  0.30294753    -0.67500
O730        O  0.49901002  0.95021375  0.33766845    -0.52100
C731        C  0.99581102  0.92296718  0.33092545     0.71200
O732        O  0.08560805  0.99850345  0.19783260    -0.60400
O733        O  0.04530024  0.50133779  0.16194793    -0.52400
C734        C  0.07596122  0.99869075  0.16984609     0.73000
O735        O  0.08590816  0.00103574  0.30180924    -0.71800
O736        O  0.04851715  0.99855848  0.33849945    -0.50500
C737        C  0.07686938  0.99979281  0.33002342     0.74400
O738        O  0.00402057  0.91283319  0.19863331    -0.67200
O739        O  0.00298687  0.95108630  0.16282427    -0.54400
C740        C  0.00406188  0.92265220  0.17056622     0.72800
Zr741      Zr  0.00153597  0.93382454  0.25083794     2.77500
O742        O  0.04391206  0.89757511  0.25347636    -0.97900
O743        O  0.45951912  0.89616245  0.24680014    -0.78700
Zr744      Zr  0.06486872  0.99925170  0.25013268     2.70100
O745        O  0.10421409  0.95963649  0.25152433    -0.80000
O746        O  0.09957279  0.54630927  0.25000081    -0.99100
Zr747      Zr  0.99912075  0.49948833  0.19252311     2.21500
Zr748      Zr  0.50059117  0.99864415  0.31004981     2.11100
O749        O  0.03368472  0.96612338  0.28055842    -2.47800
O750        O  0.03377257  0.96597715  0.22067019    -0.79800
O751        O  0.46775129  0.96666831  0.28027853    -0.72000
O752        O  0.03043039  0.53435686  0.22080559    -2.32900
O753        O  0.46797016  0.96679694  0.22046809    -2.29100
O754        O  0.03076961  0.53455470  0.28034027    -0.73700
H755        H  0.45397818  0.54412787  0.29522633     0.78300
H756        H  0.04233523  0.54738740  0.20724108     0.79400
H757        H  0.04626204  0.95372954  0.29392935     0.81600
H758        H  0.45546388  0.95451751  0.20695490     0.79200
H759        H  0.04598399  0.60299328  0.23225109     0.42200
H760        H  0.09332847  0.55893419  0.26788644     0.41200
H761        H  0.12352015  0.97041785  0.24606765     0.40900
H762        H  0.06124407  0.90834864  0.24327791     0.38800
H763        H  0.44118043  0.90627287  0.25563968     0.41900
H764        H  0.39992872  0.94993831  0.22973908     0.36700
H765        H  0.40254725  0.55257497  0.23928625     0.42800
H766        H  0.46316515  0.61912086  0.25656288     0.39200
H767        H  0.04962956  0.89681805  0.27548963     0.44200
H768        H  0.37780309  0.97206337  0.24742814     0.42900
H769        H  0.44738609  0.59938497  0.23104230     0.43000
H770        H  0.11938571  0.53715481  0.25614478     0.43400
O771        O  0.50016406  0.69903720  0.08700110    -0.75500
O772        O  0.99877402  0.66088596  0.04666305    -0.54400
C773        C  0.49921829  0.67099349  0.07794054     0.78200
O774        O  0.41586964  0.80255363  0.99929722    -0.60100
O775        O  0.45422494  0.83811982  0.00056709    -0.53100
C776        C  0.42572634  0.83047575  0.99948005     0.70300
O777        O  0.41490858  0.69911113  0.00522316    -0.74600
O778        O  0.45243765  0.66291791  0.00431402    -0.55200
C779        C  0.42404313  0.67101697  0.00563990     0.76300
O780        O  0.50506169  0.80197312  0.08642722    -0.59800
O781        O  0.50300636  0.83800849  0.04848685    -0.52900
C782        C  0.50490261  0.82994570  0.07689451     0.72900
Zr783      Zr  0.50268916  0.75044191  0.06528040     2.54700
O784        O  0.46597690  0.75266310  0.10758503    -0.80400
O785        O  0.04651854  0.74412604  0.09836599    -0.93800
Zr786      Zr  0.43695405  0.75068994  0.00200183     2.64700
O787        O  0.39770514  0.75273548  0.04206623    -0.98700
O788        O  0.39766999  0.74944333  0.46662417    -0.80800
O789        O  0.46893756  0.72094655  0.03448972    -0.84100
O790        O  0.46914859  0.78018567  0.03448924    -2.18900
O791        O  0.08774702  0.80036391  0.50128629    -0.67500
O792        O  0.04876605  0.83631042  0.99990636    -0.52100
C793        C  0.07834601  0.82834618  0.50135768     0.71200
O794        O  0.99983128  0.69792186  0.41603820    -0.60400
O795        O  0.00010199  0.66167612  0.45405846    -0.52400
C796        C  0.99958535  0.66988157  0.42557320     0.73000
O797        O  0.99575204  0.80165899  0.41640124    -0.71800
O798        O  0.50108645  0.83794566  0.45426783    -0.50500
C799        C  0.99657072  0.82953387  0.42621872     0.74400
O800        O  0.08444893  0.69682820  0.99398197    -0.67200
O801        O  0.04662009  0.66085564  0.99679402    -0.54400
C802        C  0.07707691  0.66932844  0.49848648     0.72800
Zr803      Zr  0.06392201  0.74871174  0.99570345     2.77500
O804        O  0.10399759  0.75114672  0.45812025    -0.97900
O805        O  0.10776466  0.74358874  0.02975700    -0.78700
Zr806      Zr  0.99907234  0.74965573  0.43740720     2.73700
O807        O  0.03679746  0.75228290  0.39588101    -0.80000
O808        O  0.45855275  0.74970612  0.39958105    -0.99100
Zr809      Zr  0.99916741  0.69023393  0.99917154     2.21500
Zr810      Zr  0.50171026  0.80919138  0.00110632     2.11100
O811        O  0.03327420  0.77898319  0.46770403    -2.47800
O812        O  0.03289678  0.71957019  0.46758821    -0.79800
O813        O  0.03452640  0.77852431  0.03062533    -0.72000
O814        O  0.46803503  0.72101660  0.47044291    -2.32900
O815        O  0.03374885  0.71884292  0.03027451    -2.29100
O816        O  0.46847831  0.78027620  0.47050273    -0.73700
H817        H  0.45690228  0.79350829  0.04730572     0.78300
H818        H  0.45479233  0.70813692  0.45823412     0.79400
H819        H  0.04546041  0.79227044  0.45458338     0.81600
H820        H  0.04659227  0.70533692  0.04222880     0.79200
H821        H  0.37845190  0.75183371  0.47862297     0.42200
H822        H  0.44584852  0.76783577  0.40462506     0.41200
H823        H  0.05372582  0.73886936  0.40278786     0.40900
H824        H  0.12381100  0.74756638  0.46851462     0.38800
H825        H  0.10113317  0.72861537  0.04567458     0.41900
H826        H  0.03813475  0.74949996  0.11888674     0.36700
H827        H  0.44718181  0.76121494  0.09823834     0.42800
H828        H  0.40357734  0.77036844  0.05510193     0.39200
H829        H  0.10047362  0.73232005  0.44591183     0.44200
H830        H  0.06006177  0.76157441  0.09278659     0.42900
H831        H  0.37897983  0.75961339  0.03129331     0.43000
H832        H  0.46868528  0.75505821  0.37980590     0.43400
O833        O  0.30252666  0.58448112  0.00337585    -0.75500
O834        O  0.33821830  0.54642796  0.00313185    -0.54400
C835        C  0.33050937  0.57489535  0.00371775     0.78200
O836        O  0.19896497  0.00028084  0.08634977    -0.60100
O837        O  0.16225643  0.49936431  0.04806651    -0.53100
C838        C  0.16984539  0.50016606  0.07663860     0.70300
O839        O  0.30267143  0.00051844  0.08675432    -0.74600
O840        O  0.33880359  0.00052808  0.04877650    -0.55200
C841        C  0.32936141  0.49600582  0.07784444     0.76300
O842        O  0.19795166  0.58476741  0.99910586    -0.59800
O843        O  0.16244639  0.54636348  0.00000274    -0.52900
C844        C  0.16995350  0.57486863  0.99922757     0.72900
Zr845      Zr  0.25035092  0.56380203  0.00088173     2.54700
O846        O  0.24907290  0.60219537  0.04141620    -0.80400
O847        O  0.25151278  0.60607439  0.46524316    -0.93800
Zr848      Zr  0.25091176  0.00121249  0.06551713     2.64700
O849        O  0.25249495  0.53955290  0.10355135    -0.98700
O850        O  0.25019110  0.96477393  0.10811452    -0.80800
O851        O  0.27977789  0.53181943  0.03377349    -0.84100
O852        O  0.22032026  0.53197117  0.03355245    -2.18900
O853        O  0.19866193  0.50311873  0.41657528    -0.67500
O854        O  0.16275608  0.50035166  0.45469559    -0.52100
C855        C  0.17124594  0.00173787  0.42430231     0.71200
O856        O  0.30260623  0.91403565  0.99923600    -0.60400
O857        O  0.33832506  0.95225354  0.00012017    -0.52400
C858        C  0.32993453  0.92386894  0.50042295     0.73000
O859        O  0.19879438  0.91397696  0.00356757    -0.71800
O860        O  0.16316065  0.95197003  0.00215449    -0.50500
C861        C  0.17092346  0.92421473  0.50161005     0.74400
O862        O  0.30268160  0.49950022  0.41674554    -0.67200
O863        O  0.33863343  0.00173087  0.45437646    -0.54400
C864        C  0.33105360  0.00066407  0.42595135     0.72800
Zr865      Zr  0.25056263  0.50075205  0.43765519     2.77500
O866        O  0.25024132  0.96073030  0.39707544    -0.97900
O867        O  0.25267099  0.54186823  0.39957277    -0.78700
Zr868      Zr  0.25090846  0.93510380  0.00280297     2.70100
O869        O  0.24913162  0.89683086  0.46093452    -0.80000
O870        O  0.25275401  0.89867545  0.04539806    -0.99100
Zr871      Zr  0.30944218  0.99981653  0.00151002     2.21500
Zr872      Zr  0.19165636  0.49929489  0.00047946     2.11100
O873        O  0.22095357  0.96756116  0.46755304    -2.47800
O874        O  0.28064374  0.96797563  0.46801011    -0.79800
O875        O  0.22086733  0.53301039  0.46983317    -0.72000
O876        O  0.28059530  0.96730080  0.03503957    -2.32900
O877        O  0.28040413  0.53278996  0.46976176    -2.29100
O878        O  0.22113860  0.96748749  0.03481574    -0.73700
H879        H  0.20700001  0.54455412  0.04602006     0.78300
H880        H  0.29379311  0.95494224  0.04777506     0.79400
H881        H  0.20777485  0.95506391  0.45492820     0.81600
H882        H  0.29377215  0.54532907  0.45717624     0.79200
H883        H  0.25859171  0.94562882  0.09924950     0.42200
H884        H  0.23235545  0.90012829  0.05542363     0.41200
H885        H  0.25618551  0.90753045  0.44201656     0.40900
H886        H  0.23104742  0.94913125  0.40096915     0.38800
H887        H  0.23535165  0.55549891  0.40504261     0.41900
H888        H  0.26712375  0.59994205  0.44981268     0.36700
H889        H  0.25719154  0.62108217  0.03155326     0.42800
H890        H  0.23412609  0.55232804  0.09991889     0.39200
H891        H  0.24650254  0.97187009  0.37754514     0.44200
H892        H  0.26090237  0.62359491  0.47622123     0.42900
H893        H  0.24837874  0.52908162  0.12342919     0.43000
H894        H  0.25275560  0.87829320  0.03537961     0.43400
C895        C  0.37381478  0.84916686  0.98471820    -0.26500
C896        C  0.40232687  0.85533154  0.99831534    -0.14600
C897        C  0.40883577  0.88682711  0.50991274     0.36000
C898        C  0.38484336  0.90854866  0.50896966    -0.26000
C899        C  0.35478943  0.90020174  0.50066557    -0.15200
C900        C  0.35052449  0.87130536  0.98395415     0.37100
N901        N  0.32217392  0.86420193  0.96905641    -0.89500
H902        H  0.36949055  0.82696573  0.97441250     0.18200
H903        H  0.38965794  0.93211471  0.51521767     0.18200
N904        N  0.43904909  0.89633455  0.51896796    -0.88500
H905        H  0.31258856  0.84495614  0.97990875     0.35600
H906        H  0.32700184  0.85843908  0.94618612     0.40700
H907        H  0.44374301  0.88573796  0.54004101     0.40300
H908        H  0.43972666  0.91998113  0.52296137     0.35200
C909        C  0.40939036  0.61563935  0.50663317    -0.26500
C910        C  0.40016897  0.64626156  0.00696084    -0.14600
C911        C  0.36926420  0.65231009  0.01523046     0.36000
C912        C  0.34738340  0.62862187  0.01394215    -0.26000
C913        C  0.35524861  0.59866515  0.00499449    -0.15200
C914        C  0.38738295  0.59185315  0.50575221     0.37100
N915        N  0.39705888  0.56049423  0.50902706    -0.89500
H916        H  0.43321010  0.60982648  0.51045260     0.18200
H917        H  0.32387862  0.63370804  0.02029129     0.18200
N918        N  0.35999451  0.68240296  0.02505930    -0.88500
H919        H  0.42045608  0.55933133  0.51398182     0.35600
H920        H  0.39437234  0.54998028  0.48759336     0.40700
H921        H  0.37075295  0.68678860  0.04603866     0.40300
H922        H  0.33639099  0.68312261  0.02942405     0.35200
C923        C  0.09491206  0.88231626  0.49079895    -0.26500
C924        C  0.10193094  0.85304246  0.50245682    -0.14600
C925        C  0.13137030  0.84784771  0.51495264     0.36000
C926        C  0.15326838  0.87146881  0.51423975    -0.26000
C927        C  0.14645472  0.90052204  0.50202240    -0.15200
C928        C  0.11680782  0.90605635  0.49023678     0.37100
N929        N  0.10749265  0.93629205  0.98268279    -0.89500
H930        H  0.07064197  0.88760520  0.98600040     0.18200
H931        H  0.17576060  0.86723821  0.52382496     0.18200
N932        N  0.13882332  0.81888879  0.52899509    -0.88500
H933        H  0.08630560  0.93570550  0.46990742     0.35600
H934        H  0.12260757  0.93844029  0.45733628     0.40700
H935        H  0.12495893  0.81643536  0.54859000     0.40300
H936        H  0.16217712  0.81601335  0.03175874     0.35200
C937        C  0.15144340  0.62715700  0.98543312    -0.26500
C938        C  0.14479253  0.59806055  0.99783661    -0.14600
C939        C  0.11451772  0.59207211  0.00866058     0.36000
C940        C  0.09210478  0.61526743  0.00680928    -0.26000
C941        C  0.10054925  0.64479414  0.49789477    -0.15200
C942        C  0.12980078  0.64979121  0.48469175     0.37100
N943        N  0.13703952  0.67807317  0.46933149    -0.89500
H944        H  0.17425987  0.63219797  0.97672231     0.18200
H945        H  0.06921824  0.61067314  0.01555435     0.18200
N946        N  0.10670758  0.56306647  0.02260292    -0.88500
H947        H  0.14517675  0.67562410  0.94805544     0.35600
H948        H  0.15515533  0.68858683  0.98332186     0.40700
H949        H  0.10557409  0.54681990  0.00499537     0.40300
H950        H  0.08712352  0.56491852  0.53762117     0.35200
C951        C  0.35077565  0.51495199  0.37597422    -0.26500
C952        C  0.35570800  0.00096331  0.40231530    -0.14600
C953        C  0.38680408  0.99464199  0.40910116     0.36000
C954        C  0.40843472  0.99401594  0.38499994    -0.26000
C955        C  0.40054122  0.49868983  0.35656683    -0.15200
C956        C  0.37275347  0.51501005  0.35257830     0.37100
N957        N  0.36627354  0.53244113  0.32535625    -0.89500
H958        H  0.32977985  0.52776998  0.37254842     0.18200
H959        H  0.43213385  0.98907515  0.39040412     0.18200
N960        N  0.39641892  0.98818759  0.44008684    -0.88500
H961        H  0.36407252  0.51745956  0.30677841     0.35600
H962        H  0.38435196  0.54773425  0.32120623     0.40700
H963        H  0.39541726  0.00873808  0.45236444     0.40300
H964        H  0.41939990  0.98141238  0.44049325     0.35200
C965        C  0.09334876  0.00763027  0.38464071    -0.26500
C966        C  0.10102844  0.99989236  0.35415634    -0.14600
C967        C  0.13198231  0.99292414  0.34708196     0.36000
C968        C  0.15427209  0.99424221  0.37012888    -0.26000
C969        C  0.14665775  0.00197206  0.40060786    -0.15200
C970        C  0.11576379  0.00903246  0.40772771     0.37100
N971        N  0.10697726  0.01814599  0.43819186    -0.89500
H972        H  0.06984803  0.01309846  0.39063834     0.18200
H973        H  0.17827335  0.49783029  0.36453393     0.18200
N974        N  0.14264862  0.49628502  0.31629764    -0.88500
H975        H  0.09030591  0.00276978  0.44626912     0.35600
H976        H  0.09704230  0.03993003  0.43688242     0.40700
H977        H  0.15088366  0.96202179  0.31798711     0.40300
H978        H  0.15774750  0.99919413  0.30867365     0.35200
C979        C  0.12592097  0.51515854  0.15101275    -0.26500
C980        C  0.09941366  0.99956237  0.14510101    -0.14600
C981        C  0.09402447  0.98749375  0.11541757     0.36000
C982        C  0.11762161  0.98852543  0.09323531    -0.26000
C983        C  0.14485962  0.50177111  0.10000517    -0.15200
C984        C  0.14960737  0.51546979  0.12907199     0.37100
N985        N  0.17824280  0.53022418  0.13611855    -0.89500
H986        H  0.12989617  0.52555879  0.17326866     0.18200
H987        H  0.11377731  0.97852192  0.07077044     0.18200
N988        N  0.06494800  0.97380393  0.10800937    -0.88500
H989        H  0.17809815  0.53870800  0.15861348     0.35600
H990        H  0.18036379  0.54928073  0.12155867     0.40700
H991        H  0.06250848  0.95393759  0.12138205     0.40300
H992        H  0.06455376  0.96682431  0.08500153     0.35200
C993        C  0.37028325  0.48762981  0.15506062    -0.26500
C994        C  0.40040236  0.49662734  0.14748461    -0.14600
C995        C  0.40842791  0.01153638  0.11570997     0.36000
C996        C  0.38484367  0.01086098  0.09365751    -0.26000
C997        C  0.35374972  0.49453373  0.10187323    -0.15200
C998        C  0.34708113  0.48615772  0.13276390     0.37100
N999        N  0.31686987  0.47588491  0.14152022    -0.89500
H1000       H  0.36474067  0.48131636  0.17859818     0.18200
H1001       H  0.38945363  0.01952575  0.07067386     0.18200
N1002       N  0.43815924  0.02358235  0.10762185    -0.88500
H1003       H  0.31567121  0.47122449  0.16512968     0.35600
H1004       H  0.31284463  0.45506989  0.13031102     0.40700
H1005       H  0.44201262  0.53462921  0.11777001     0.40300
H1006       H  0.43887146  0.03014170  0.08444927     0.35200
C1007       C  0.51892107  0.62133034  0.40414118    -0.26500
C1008       C  0.99856366  0.64543806  0.40187264    -0.14600
C1009       C  0.98254297  0.64976175  0.37400724     0.36000
C1010       C  0.98365949  0.62697340  0.35124264    -0.26000
C1011       C  0.50074711  0.60058414  0.35561424    -0.15200
C1012       C  0.52011882  0.59841889  0.38144043     0.37100
N1013       N  0.54138993  0.57340104  0.38414581    -0.89500
H1014       H  0.53403211  0.61994315  0.42381433     0.18200
H1015       H  0.97133185  0.63047001  0.32993610     0.18200
N1016       N  0.96461338  0.67699771  0.36913670    -0.88500
H1017       H  0.55407793  0.57529397  0.40440768     0.35600
H1018       H  0.55707373  0.57519056  0.36590702     0.40700
H1019       H  0.94679171  0.67684365  0.38537329     0.40300
H1020       H  0.95428528  0.67662596  0.34748258     0.35200
C1021       C  0.51039542  0.90522459  0.38255833    -0.26500
C1022       C  0.99340568  0.89969356  0.35590852    -0.14600
C1023       C  0.97944047  0.87075191  0.35122895     0.36000
C1024       C  0.98037162  0.84852311  0.37470580    -0.26000
C1025       C  0.99473592  0.85449167  0.40292108    -0.15200
C1026       C  0.51168079  0.88343190  0.40636375     0.37100
N1027       N  0.52733478  0.89059342  0.43447330    -0.89500
H1028       H  0.52096088  0.92748701  0.38591846     0.18200
H1029       H  0.96977147  0.82634749  0.37089319     0.18200
N1030       N  0.96415981  0.86403733  0.32278683    -0.88500
H1031       H  0.53550149  0.91317606  0.43408979     0.35600
H1032       H  0.54662675  0.87643734  0.43556319     0.40700
H1033       H  0.94529557  0.87871651  0.32118491     0.40300
H1034       H  0.95542986  0.84166747  0.32295937     0.35200
C1035       C  0.49566590  0.88400621  0.09312719    -0.26500
C1036       C  0.50647736  0.85450644  0.10036335    -0.14600
C1037       C  0.51774966  0.84876082  0.13023768     0.36000
C1038       C  0.01631906  0.86988694  0.15229483    -0.26000
C1039       C  0.00534153  0.89941298  0.14557496    -0.15200
C1040       C  0.99570277  0.90596430  0.11521633     0.37100
N1041       N  0.98476699  0.93587116  0.10705032    -0.89500
H1042       H  0.48722812  0.88899851  0.07026422     0.18200
H1043       H  0.02450477  0.86449231  0.17518541     0.18200
N1044       N  0.53044101  0.81949954  0.13819201    -0.88500
H1045       H  0.96236568  0.93368154  0.09887478     0.35600
H1046       H  0.99852291  0.94433592  0.08912220     0.40700
H1047       H  0.51781456  0.81048979  0.15668241     0.40300
H1048       H  0.55301286  0.82283782  0.14543199     0.35200
C1049       C  0.49186065  0.62982199  0.15526810    -0.26500
C1050       C  0.49890871  0.59941351  0.14725373    -0.14600
C1051       C  0.00738980  0.59164756  0.11494520     0.36000
C1052       C  0.00697162  0.61491386  0.09237245    -0.26000
C1053       C  0.49801697  0.64661010  0.10205094    -0.15200
C1054       C  0.49096138  0.65332080  0.13320252     0.37100
N1055       N  0.48223593  0.68377366  0.14243570    -0.89500
H1056       H  0.48638718  0.63539303  0.17896365     0.18200
H1057       H  0.01652143  0.61029131  0.06976737     0.18200
N1058       N  0.02004810  0.56208693  0.10761011    -0.88500
H1059       H  0.47864606  0.68490363  0.16623438     0.35600
H1060       H  0.46110189  0.68853665  0.13224826     0.40700
H1061       H  0.03999648  0.55934462  0.12056012     0.40300
H1062       H  0.02674789  0.56115831  0.08447002     0.35200
O1063       O  0.41467920  0.50261390  0.69937953    -0.75500
O1064       O  0.45268580  0.50154367  0.66314416    -0.54400
C1065       C  0.42429517  0.50232624  0.67128721     0.78200
O1066       O  0.50301814  0.58682535  0.80223382    -0.60100
O1067       O  0.50178063  0.54899043  0.83861344    -0.53100
C1068       C  0.50281935  0.57735469  0.83036695     0.70300
O1069       O  0.50079829  0.58586001  0.69841568    -0.74600
O1070       O  0.99866831  0.54656721  0.66333210    -0.55200
C1071       C  0.50090530  0.57590439  0.67052057     0.76300
O1072       O  0.41558375  0.50152575  0.80300151    -0.59800
O1073       O  0.45364879  0.00010098  0.83915554    -0.52900
C1074       C  0.42485270  0.50208258  0.83096889     0.72900
Zr1075     Zr  0.43605546  0.50150965  0.75110526     2.54700
O1076       O  0.39544820  0.53975742  0.75098362    -0.80400
O1077       O  0.39826774  0.95880973  0.75324629    -0.93800
Zr1078     Zr  0.50075863  0.56517542  0.75062349     2.64700
O1079       O  0.45834575  0.60149571  0.75183827    -0.98700
O1080       O  0.03291973  0.60612374  0.74908569    -0.80800
O1081       O  0.46781247  0.53392124  0.72084878    -0.84100
O1082       O  0.46795272  0.53395070  0.78093386    -2.18900
O1083       O  0.99672797  0.91401392  0.80198513    -0.67500
O1084       O  0.50135657  0.95246007  0.83822912    -0.52100
C1085       C  0.99679266  0.92366740  0.82993506     0.71200
O1086       O  0.08622489  0.00054009  0.69811438    -0.60400
O1087       O  0.04662378  0.49956580  0.66356068    -0.52400
C1088       C  0.07653826  0.00013314  0.67019819     0.73000
O1089       O  0.08642711  0.00102351  0.80163460    -0.71800
O1090       O  0.04893687  0.00030507  0.83828776    -0.50500
C1091       C  0.07736254  0.00059232  0.82985676     0.74400
O1092       O  0.00379675  0.91404110  0.69844951    -0.67200
O1093       O  0.00219797  0.95223165  0.66263716    -0.54400
C1094       C  0.00338256  0.92383724  0.67043858     0.72800
Zr1095     Zr  0.00217014  0.93513651  0.75038091     2.77500
O1096       O  0.04494921  0.89943829  0.75349918    -0.97900
O1097       O  0.46550714  0.89571747  0.74991872    -0.78700
Zr1098     Zr  0.06520144  0.00034857  0.75001799     2.70100
O1099       O  0.10240724  0.95873907  0.74921107    -0.80000
O1100       O  0.09704690  0.54562732  0.75057949    -0.99100
Zr1101     Zr  0.99909093  0.49946437  0.69250098     2.21500
Zr1102     Zr  0.50149556  0.00088018  0.81032041     2.11100
O1103       O  0.03405786  0.96731770  0.78034240    -2.47800
O1104       O  0.03422775  0.96728240  0.72014349    -0.79800
O1105       O  0.47012220  0.96735086  0.78077313    -0.72000
O1106       O  0.03060464  0.53331631  0.72143412    -2.32900
O1107       O  0.46934509  0.96674112  0.72120766    -2.29100
O1108       O  0.03035897  0.53327084  0.78119961    -0.73700
H1109       H  0.45556658  0.54679118  0.79410746     0.78300
H1110       H  0.04292761  0.54622041  0.70811157     0.79400
H1111       H  0.04662369  0.95485507  0.79367009     0.81600
H1112       H  0.45722992  0.95378390  0.70801080     0.79200
H1113       H  0.05263863  0.59654623  0.74316268     0.42200
H1114       H  0.08998372  0.55848761  0.76798203     0.41200
H1115       H  0.12230366  0.96870199  0.75366784     0.40900
H1116       H  0.03695540  0.88013384  0.74460910     0.38800
H1117       H  0.45191442  0.90087249  0.73248196     0.41900
H1118       H  0.40523049  0.94334145  0.73810520     0.36700
H1119       H  0.40632019  0.55966521  0.75231459     0.42800
H1120       H  0.46830476  0.62194587  0.75200382     0.39200
H1121       H  0.05993557  0.90706947  0.73803659     0.44200
H1122       H  0.37993178  0.96821150  0.74381914     0.42900
H1123       H  0.44887630  0.60004685  0.73123345     0.43000
H1124       H  0.11703834  0.53739155  0.75737850     0.43400
O1125       O  0.50082882  0.69790657  0.58692414    -0.75500
O1126       O  0.00069006  0.66205960  0.54989212    -0.54400
C1127       C  0.49978568  0.67007101  0.57706865     0.78200
O1128       O  0.41720272  0.80299670  0.50342728    -0.60100
O1129       O  0.45523247  0.83883491  0.50283979    -0.53100
C1130       C  0.42672644  0.83108490  0.50300615     0.70300
O1131       O  0.41619067  0.69919194  0.50554918    -0.74600
O1132       O  0.45350391  0.66292364  0.50187390    -0.55200
C1133       C  0.42517041  0.67111893  0.50348246     0.76300
O1134       O  0.50775464  0.80168119  0.58699937    -0.59800
O1135       O  0.50476516  0.83795585  0.54932388    -0.52900
C1136       C  0.50713912  0.82979617  0.57770252     0.72900
Zr1137     Zr  0.50536190  0.74971853  0.56589071     2.54700
O1138       O  0.46925024  0.75202899  0.60879687    -0.80400
O1139       O  0.04853071  0.74687898  0.60066915    -0.93800
Zr1140     Zr  0.43808226  0.75077666  0.50493713     2.64700
O1141       O  0.40246772  0.75115893  0.54832931    -0.98700
O1142       O  0.39997711  0.75040079  0.96012548    -0.80800
O1143       O  0.47110546  0.72041150  0.53557029    -0.84100
O1144       O  0.47116823  0.78000756  0.53644371    -2.18900
O1145       O  0.08611618  0.79990326  0.00086715    -0.67500
O1146       O  0.04995426  0.83636096  0.50044938    -0.52100
C1147       C  0.07706170  0.82801953  0.00133555     0.71200
O1148       O  0.99786859  0.69844061  0.91369803    -0.60400
O1149       O  0.99770118  0.66202579  0.95152176    -0.52400
C1150       C  0.99764656  0.67037902  0.92311933     0.73000
O1151       O  0.99575059  0.80205223  0.91410775    -0.71800
O1152       O  0.50123812  0.83838223  0.95379346    -0.50500
C1153       C  0.99680912  0.82982686  0.92408607     0.74400
O1154       O  0.08666010  0.69725606  0.49751202    -0.67200
O1155       O  0.04870618  0.66134935  0.50045874    -0.54400
C1156       C  0.07506360  0.66884157  0.99488779     0.72800
Zr1157     Zr  0.06584415  0.74897298  0.49928198     2.77500
O1158       O  0.09757200  0.75256296  0.95082852    -0.97900
O1159       O  0.10464073  0.74719826  0.53931256    -0.78700
Zr1160     Zr  0.99648101  0.75010109  0.93510602     2.73700
O1161       O  0.03313226  0.75162241  0.89262454    -0.80000
O1162       O  0.45903684  0.75004794  0.89970733    -0.99100
Zr1163     Zr  0.00138005  0.69031379  0.50180970     2.21500
Zr1164     Zr  0.50236472  0.80908809  0.50190934     2.11100
O1165       O  0.03114648  0.77930754  0.96509970    -2.47800
O1166       O  0.03037120  0.71949656  0.96461265    -0.79800
O1167       O  0.03580578  0.77903930  0.53326288    -0.72000
O1168       O  0.46801632  0.72068659  0.96882113    -2.32900
O1169       O  0.03546569  0.71899494  0.53343879    -2.29100
O1170       O  0.46856620  0.78048260  0.96887684    -0.73700
H1171       H  0.45934779  0.79325309  0.54972624     0.78300
H1172       H  0.45516626  0.70762874  0.95641889     0.79400
H1173       H  0.04335007  0.79260948  0.95203879     0.81600
H1174       H  0.04826583  0.70552173  0.54550020     0.79200
H1175       H  0.39032053  0.72982867  0.96068236     0.42200
H1176       H  0.44595720  0.76766057  0.90555629     0.41200
H1177       H  0.05215103  0.74287521  0.90131694     0.40900
H1178       H  0.11808954  0.75698441  0.95943126     0.38800
H1179       H  0.12374877  0.74126159  0.52846341     0.41900
H1180       H  0.05706951  0.72602601  0.59790319     0.36700
H1181       H  0.48221704  0.75465192  0.62723997     0.42800
H1182       H  0.40808440  0.76958690  0.56033169     0.39200
H1183       H  0.09916708  0.73135510  0.94288859     0.44200
H1184       H  0.03951200  0.74655205  0.62164749     0.42900
H1185       H  0.38240099  0.75628972  0.53912526     0.43000
H1186       H  0.46874558  0.75634768  0.87999693     0.43400
O1187       O  0.30304663  0.58504151  0.50201978    -0.75500
O1188       O  0.33846403  0.54685267  0.50221475    -0.54400
C1189       C  0.33100308  0.57538585  0.50196931     0.78200
O1190       O  0.19874899  0.00028383  0.58635394    -0.60100
O1191       O  0.16278053  0.49899199  0.55013124    -0.53100
C1192       C  0.17066106  0.49911952  0.57862801     0.70300
O1193       O  0.30197821  0.99942156  0.58652438    -0.74600
O1194       O  0.33831461  0.99932092  0.54878707    -0.55200
C1195       C  0.32954901  0.49981379  0.57858864     0.76300
O1196       O  0.19851938  0.58503787  0.50069144    -0.59800
O1197       O  0.16292303  0.54669722  0.50190427    -0.52900
C1198       C  0.17059107  0.57512090  0.50100903     0.72900
Zr1199     Zr  0.25069440  0.56437254  0.50276931     2.54700
O1200       O  0.25000139  0.60092909  0.54504399    -0.80400
O1201       O  0.25311080  0.60190380  0.95980650    -0.93800
Zr1202     Zr  0.25034645  0.00047483  0.56513054     2.64700
O1203       O  0.25254181  0.54105805  0.60386443    -0.98700
O1204       O  0.25030642  0.96152381  0.60545475    -0.80800
O1205       O  0.28031636  0.53230338  0.53523053    -0.84100
O1206       O  0.22053709  0.53237717  0.53532019    -2.18900
O1207       O  0.19935784  0.50128798  0.91443772    -0.67500
O1208       O  0.16345902  0.49972309  0.95272097    -0.52100
C1209       C  0.17185281  0.00007343  0.92442786     0.71200
O1210       O  0.30193927  0.91441439  0.49960124    -0.60400
O1211       O  0.33778789  0.95239920  0.50131616    -0.52400
C1212       C  0.33052036  0.92377286  0.99881109     0.73000
O1213       O  0.19883760  0.91463891  0.50097489    -0.71800
O1214       O  0.16304503  0.95260916  0.50202078    -0.50500
C1215       C  0.17082480  0.92353918  0.00298602     0.74400
O1216       O  0.30412521  0.49977973  0.91637464    -0.67200
O1217       O  0.33968290  0.99907126  0.95501593    -0.54400
C1218       C  0.33213350  0.99721928  0.92660466     0.72800
Zr1219     Zr  0.25133801  0.50002200  0.93593264     2.77500
O1220       O  0.24999201  0.95862200  0.89699298    -0.97900
O1221       O  0.25221430  0.53988079  0.89641985    -0.78700
Zr1222     Zr  0.25045584  0.93612139  0.50060525     2.70100
O1223       O  0.25013482  0.89371633  0.96538260    -0.80000
O1224       O  0.25191755  0.89952428  0.54296798    -0.99100
Zr1225     Zr  0.30930538  0.00048644  0.50131026     2.21500
Zr1226     Zr  0.19168126  0.49961886  0.50230677     2.11100
O1227       O  0.22169850  0.96580026  0.96872386    -2.47800
O1228       O  0.28085359  0.96627659  0.96922691    -0.79800
O1229       O  0.22106917  0.53227504  0.96777637    -0.72000
O1230       O  0.27985492  0.96751464  0.53363656    -2.32900
O1231       O  0.28069285  0.53221064  0.96845999    -2.29100
O1232       O  0.22057715  0.96750951  0.53358498    -0.73700
H1233       H  0.20724508  0.54482727  0.54793307     0.78300
H1234       H  0.29282474  0.95478716  0.54621347     0.79400
H1235       H  0.20854330  0.95303581  0.95632375     0.81600
H1236       H  0.29424135  0.54492610  0.95618653     0.79200
H1237       H  0.26012502  0.94343581  0.59584510     0.42200
H1238       H  0.23121722  0.90043292  0.55241479     0.41200
H1239       H  0.23453308  0.89998774  0.95016085     0.40900
H1240       H  0.26373549  0.96619194  0.88037430     0.38800
H1241       H  0.27103358  0.55191875  0.90047941     0.41900
H1242       H  0.24618129  0.62122283  0.96952583     0.36700
H1243       H  0.26704570  0.59443599  0.55852221     0.42800
H1244       H  0.23425775  0.55377092  0.59963778     0.39200
H1245       H  0.26107078  0.94103962  0.90613950     0.44200
H1246       H  0.23631895  0.59625306  0.94564820     0.42900
H1247       H  0.24818054  0.53118274  0.62398734     0.43000
H1248       H  0.25276143  0.87921219  0.53286228     0.43400
C1249       C  0.37276903  0.84762795  0.49387846    -0.26500
C1250       C  0.40278340  0.85573734  0.50233222    -0.14600
C1251       C  0.40752651  0.88476075  0.01106214     0.36000
C1252       C  0.38411428  0.90697515  0.01012493    -0.26000
C1253       C  0.35535474  0.90042417  0.99725995    -0.15200
C1254       C  0.34901471  0.86923290  0.49293226     0.37100
N1255       N  0.31912333  0.85942329  0.48354624    -0.89500
H1256       H  0.36750112  0.82417417  0.48755965     0.18200
H1257       H  0.38801398  0.92919044  0.02054768     0.18200
N1258       N  0.43599917  0.89168875  0.02604828    -0.88500
H1259       H  0.31169310  0.84217074  0.49865531     0.35600
H1260       H  0.32095360  0.84998331  0.46151192     0.40700
H1261       H  0.43724095  0.87774366  0.04564083     0.40300
H1262       H  0.43622545  0.91436168  0.03385838     0.35200
C1263       C  0.40820382  0.61612751  0.99859417    -0.26500
C1264       C  0.40114169  0.64659309  0.50248009    -0.14600
C1265       C  0.36998043  0.65353829  0.49706618     0.36000
C1266       C  0.34794859  0.63006179  0.49708517    -0.26000
C1267       C  0.35596144  0.59911521  0.50156585    -0.15200
C1268       C  0.38624029  0.59238208  0.99731736     0.37100
N1269       N  0.39535808  0.56223133  0.98751469    -0.89500
H1270       H  0.43167836  0.61114814  0.99205638     0.18200
H1271       H  0.32424326  0.63636169  0.49332468     0.18200
N1272       N  0.36032936  0.68445592  0.49142800    -0.88500
H1273       H  0.41902277  0.56133374  0.98358789     0.35600
H1274       H  0.38496875  0.55804648  0.96629580     0.40700
H1275       H  0.34398591  0.69029774  0.50810509     0.40300
H1276       H  0.34986280  0.68531946  0.46984820     0.35200
C1277       C  0.09360402  0.88259797  0.99389352    -0.26500
C1278       C  0.10090848  0.85258093  0.00330149    -0.14600
C1279       C  0.13097240  0.84654493  0.01389074     0.36000
C1280       C  0.15304618  0.87008160  0.01344248    -0.26000
C1281       C  0.14601544  0.89987788  0.00327116    -0.15200
C1282       C  0.11571686  0.90620306  0.99352346     0.37100
N1283       N  0.10913653  0.93540169  0.47712646    -0.89500
H1284       H  0.07234986  0.88661978  0.48157281     0.18200
H1285       H  0.17594950  0.86508541  0.02154820     0.18200
N1286       N  0.13905896  0.81672066  0.02554102    -0.88500
H1287       H  0.08418472  0.93724890  0.97725726     0.35600
H1288       H  0.11947831  0.94025138  0.96211183     0.40700
H1289       H  0.12640925  0.81306780  0.04576572     0.40300
H1290       H  0.16150442  0.81877588  0.53667040     0.35200
C1291       C  0.15200282  0.62674955  0.48607395    -0.26500
C1292       C  0.14569250  0.59825001  0.49987671    -0.14600
C1293       C  0.11606044  0.59275397  0.51242798     0.36000
C1294       C  0.09397158  0.61620716  0.51148045    -0.26000
C1295       C  0.09897378  0.64440244  0.99460852    -0.15200
C1296       C  0.12908891  0.65016101  0.98370301     0.37100
N1297       N  0.13719654  0.67928035  0.97049095    -0.89500
H1298       H  0.17433340  0.63119107  0.47587437     0.18200
H1299       H  0.07159169  0.61221099  0.52174685     0.18200
N1300       N  0.10863061  0.56390058  0.52688640    -0.88500
H1301       H  0.14305371  0.67311770  0.44654719     0.35600
H1302       H  0.15612727  0.68778651  0.48006086     0.40700
H1303       H  0.10649989  0.54759866  0.50941839     0.40300
H1304       H  0.08472604  0.56381650  0.03235269     0.35200
C1305       C  0.35013839  0.51383641  0.87439903    -0.26500
C1306       C  0.35683307  0.99701430  0.90297633    -0.14600
C1307       C  0.38672331  0.98570642  0.90865006     0.36000
C1308       C  0.40861409  0.98601429  0.88467376    -0.26000
C1309       C  0.40121696  0.50220260  0.85542572    -0.15200
C1310       C  0.37167911  0.51476036  0.85070281     0.37100
N1311       N  0.36276753  0.52919229  0.82243566    -0.89500
H1312       H  0.32774163  0.52368849  0.87019992     0.18200
H1313       H  0.43140958  0.97718618  0.88897023     0.18200
N1314       N  0.39465332  0.97324037  0.93824988    -0.88500
H1315       H  0.36208557  0.51279721  0.80495548     0.35600
H1316       H  0.37861397  0.54641622  0.81689025     0.40700
H1317       H  0.39648092  0.99162037  0.95353951     0.40300
H1318       H  0.41637188  0.96313579  0.93745344     0.35200
C1319       C  0.09404586  0.00785437  0.88459355    -0.26500
C1320       C  0.10160033  0.00031563  0.85402877    -0.14600
C1321       C  0.13250539  0.99296211  0.84699060     0.36000
C1322       C  0.15468056  0.99318693  0.87020126    -0.26000
C1323       C  0.14718906  0.00071683  0.90073907    -0.15200
C1324       C  0.11643589  0.00850226  0.90777689     0.37100
N1325       N  0.10776580  0.01767581  0.93824582    -0.89500
H1326       H  0.07065475  0.01369584  0.89062111     0.18200
H1327       H  0.17683646  0.48590271  0.86401830     0.18200
N1328       N  0.13901759  0.47912421  0.81757347    -0.88500
H1329       H  0.09056394  0.00278634  0.94611372     0.35600
H1330       H  0.09853035  0.03977238  0.93701073     0.40700
H1331       H  0.15129200  0.96289005  0.81697143     0.40300
H1332       H  0.15874980  0.00027179  0.80913745     0.35200
C1333       C  0.12740334  0.51218739  0.65361192    -0.26500
C1334       C  0.10003364  0.00055646  0.64562415    -0.14600
C1335       C  0.09513709  0.98645331  0.61684294     0.36000
C1336       C  0.11832979  0.98776074  0.59430910    -0.26000
C1337       C  0.14598319  0.49984308  0.60224050    -0.15200
C1338       C  0.15093804  0.51295528  0.63153873     0.37100
N1339       N  0.17963361  0.52754375  0.63869099    -0.89500
H1340       H  0.13134573  0.52248610  0.67592255     0.18200
H1341       H  0.11479994  0.97654713  0.57237508     0.18200
N1342       N  0.06706156  0.97018578  0.61089203    -0.88500
H1343       H  0.17973933  0.53536405  0.66142389     0.35600
H1344       H  0.18162193  0.54698654  0.62463933     0.40700
H1345       H  0.06613875  0.95131431  0.62581849     0.40300
H1346       H  0.06706052  0.96136265  0.58853502     0.35200
C1347       C  0.37285920  0.48682499  0.65307193    -0.26500
C1348       C  0.40065034  0.50203548  0.64695295    -0.14600
C1349       C  0.40853330  0.00543265  0.61521706     0.36000
C1350       C  0.38501386  0.00465243  0.59311763    -0.26000
C1351       C  0.35397064  0.49978088  0.60212750    -0.15200
C1352       C  0.34958716  0.48532598  0.63102483     0.37100
N1353       N  0.32177074  0.46873324  0.63779684    -0.89500
H1354       H  0.36946305  0.47549013  0.67508728     0.18200
H1355       H  0.39045610  0.01068724  0.56948531     0.18200
N1356       N  0.43908926  0.01427967  0.60611319    -0.88500
H1357       H  0.32209732  0.45987427  0.66020067     0.35600
H1358       H  0.32092931  0.44987411  0.62300160     0.40700
H1359       H  0.43399725  0.55162393  0.62651841     0.40300
H1360       H  0.44039809  0.01798712  0.58234110     0.35200
C1361       C  0.51380036  0.61874779  0.90674581    -0.26500
C1362       C  0.99731694  0.64593265  0.89956733    -0.14600
C1363       C  0.98367514  0.65058938  0.87049764     0.36000
C1364       C  0.98438210  0.62695405  0.84876377    -0.26000
C1365       C  0.50288900  0.60110106  0.85476494    -0.15200
C1366       C  0.51581710  0.59584754  0.88407769     0.37100
N1367       N  0.53170484  0.56770269  0.89048921    -0.89500
H1368       H  0.52387707  0.61470614  0.92913616     0.18200
H1369       H  0.97365138  0.63059058  0.82661272     0.18200
N1370       N  0.96870499  0.67906411  0.86320544    -0.88500
H1371       H  0.53983612  0.56748855  0.91309087     0.35600
H1372       H  0.55102360  0.56703675  0.87611614     0.40700
H1373       H  0.94964711  0.68104743  0.87779472     0.40300
H1374       H  0.96026001  0.67880533  0.84072914     0.35200
C1375       C  0.51207969  0.90702158  0.88367954    -0.26500
C1376       C  0.99476518  0.90030712  0.85460603    -0.14600
C1377       C  0.97792861  0.87281483  0.85082338     0.36000
C1378       C  0.97901054  0.85020496  0.87386981    -0.26000
C1379       C  0.99600935  0.85467002  0.90084326    -0.15200
C1380       C  0.51229736  0.88488746  0.90727503     0.37100
N1381       N  0.52538636  0.89221024  0.93662732    -0.89500
H1382       H  0.52194821  0.92945224  0.88791279     0.18200
H1383       H  0.96621954  0.82907009  0.87090870     0.18200
N1384       N  0.95958130  0.86804110  0.82382904    -0.88500
H1385       H  0.53263634  0.91508822  0.93719620     0.35600
H1386       H  0.54504300  0.87876381  0.93902920     0.40700
H1387       H  0.94211766  0.88444966  0.82402887     0.40300
H1388       H  0.94879441  0.84658929  0.82465785     0.35200
C1389       C  0.49941970  0.88442613  0.59352494    -0.26500
C1390       C  0.50867751  0.85446946  0.60134497    -0.14600
C1391       C  0.51848397  0.84863782  0.63180479     0.36000
C1392       C  0.01892737  0.87234208  0.65194763    -0.26000
C1393       C  0.00464841  0.90053229  0.64569383    -0.15200
C1394       C  0.99169202  0.90557386  0.61631067     0.37100
N1395       N  0.97683585  0.93411170  0.60900853    -0.89500
H1396       H  0.49205701  0.88959757  0.57031807     0.18200
H1397       H  0.02944147  0.86856521  0.67417931     0.18200
N1398       N  0.52934267  0.81894732  0.64086620    -0.88500
H1399       H  0.96585428  0.93275446  0.58771644     0.35600
H1400       H  0.99398073  0.95073217  0.60630277     0.40700
H1401       H  0.51549645  0.81099388  0.65897307     0.40300
H1402       H  0.55168883  0.82136490  0.64913664     0.35200
C1403       C  0.48327443  0.62598538  0.65061608    -0.26500
C1404       C  0.50028011  0.59912032  0.64574338    -0.14600
C1405       C  0.01392065  0.59471681  0.61911602     0.36000
C1406       C  0.01383392  0.61824202  0.59695072    -0.26000
C1407       C  0.49831048  0.64532836  0.60027614    -0.15200
C1408       C  0.48184833  0.64900287  0.62807833     0.37100
N1409       N  0.46337831  0.67584318  0.63311041    -0.89500
H1410       H  0.47064522  0.62884020  0.67198970     0.18200
H1411       H  0.02777889  0.61591349  0.57634579     0.18200
N1412       N  0.03252538  0.56788853  0.61443465    -0.88500
H1413       H  0.45287360  0.67502405  0.65481127     0.35600
H1414       H  0.44572194  0.67553065  0.61692940     0.40700
H1415       H  0.04958537  0.56789337  0.63125195     0.40300
H1416       H  0.04383976  0.56896439  0.59315041     0.35200
O1417       O  0.91596612  0.00046169  0.19818508    -0.75500
O1418       O  0.95409881  0.99902572  0.16208552    -0.54400
C1419       C  0.92573477  0.00035443  0.17007437     0.78200
O1420       O  0.00043217  0.08503054  0.30134896    -0.60100
O1421       O  0.00109904  0.04724661  0.33777839    -0.53100
C1422       C  0.00078658  0.07567442  0.32951758     0.70300
O1423       O  0.99897018  0.08333743  0.19758891    -0.74600
O1424       O  0.50043266  0.04656549  0.16309479    -0.55200
C1425       C  0.99970113  0.07357702  0.16962284     0.76300
O1426       O  0.91589887  0.99685684  0.30284310    -0.59800
O1427       O  0.95228129  0.49919215  0.33918134    -0.52900
C1428       C  0.92504372  0.99794939  0.33094431     0.72900
Zr1429     Zr  0.93648268  0.99715355  0.25046032     2.54700
O1430       O  0.89437173  0.03368774  0.25209441    -0.80400
O1431       O  0.89866606  0.45438718  0.25261989    -0.93800
Zr1432     Zr  0.99971418  0.06275282  0.24991152     2.64700
O1433       O  0.95768996  0.09936068  0.25019792    -0.98700
O1434       O  0.53955938  0.10491449  0.25037216    -0.80800
O1435       O  0.96749665  0.03056333  0.22037157    -0.84100
O1436       O  0.96740955  0.03072570  0.28015928    -2.18900
O1437       O  0.49562912  0.41551061  0.30468458    -0.67500
O1438       O  0.99981973  0.45286405  0.33949136    -0.52100
C1439       C  0.49629448  0.42510053  0.33267850     0.71200
O1440       O  0.58458317  0.50118231  0.19943362    -0.60400
O1441       O  0.54853630  0.00003859  0.16324790    -0.52400
C1442       C  0.57472068  0.50063244  0.17155741     0.73000
O1443       O  0.58616644  0.50350144  0.30340062    -0.71800
O1444       O  0.54878637  0.50251847  0.34010712    -0.50500
C1445       C  0.57720959  0.50334308  0.33168143     0.74400
O1446       O  0.50354724  0.41503631  0.20052471    -0.67200
O1447       O  0.50219382  0.45289991  0.16441773    -0.54400
C1448       C  0.50353695  0.42453508  0.17235217     0.72800
Zr1449     Zr  0.50271093  0.43583807  0.25280363     2.77500
O1450       O  0.54874055  0.40454268  0.25616619    -0.97900
O1451       O  0.96745010  0.39248118  0.25127556    -0.78700
Zr1452     Zr  0.56459946  0.50140792  0.25188035     2.70100
O1453       O  0.60173375  0.45964360  0.25117427    -0.80000
O1454       O  0.60539607  0.03699783  0.24867042    -0.99100
Zr1455     Zr  0.50145782  0.99960241  0.19218803     2.21500
Zr1456     Zr  0.00018810  0.50019238  0.31032273     2.11100
O1457       O  0.53419854  0.46826759  0.28281558    -2.47800
O1458       O  0.53379056  0.46824855  0.22211330    -0.79800
O1459       O  0.96905434  0.46576837  0.28149512    -0.72000
O1460       O  0.53453355  0.03189588  0.22157496    -2.32900
O1461       O  0.96827641  0.46498732  0.22199559    -2.29100
O1462       O  0.53416033  0.03139925  0.28123536    -0.73700
H1463       H  0.95464867  0.04321544  0.29325325     0.78300
H1464       H  0.54738664  0.04443064  0.20840197     0.79400
H1465       H  0.54687844  0.45609514  0.29628360     0.81600
H1466       H  0.95623741  0.45177260  0.20894010     0.79200
H1467       H  0.55797863  0.09601634  0.26013412     0.42200
H1468       H  0.60063255  0.05115847  0.26580993     0.41200
H1469       H  0.60182399  0.45141674  0.27244969     0.40900
H1470       H  0.54107076  0.38381606  0.26168531     0.38800
H1471       H  0.94941709  0.39987061  0.26304586     0.41900
H1472       H  0.89817831  0.44666196  0.23120457     0.36700
H1473       H  0.90447771  0.05394183  0.25412093     0.42800
H1474       H  0.96751066  0.11925001  0.24499577     0.39200
H1475       H  0.55596500  0.40254432  0.23461283     0.44200
H1476       H  0.87855583  0.46449465  0.25553301     0.42900
H1477       H  0.94551302  0.09415600  0.23176897     0.43000
H1478       H  0.62417199  0.02613012  0.25529148     0.43400
O1479       O  0.99870161  0.19648144  0.08606865    -0.75500
O1480       O  0.49993345  0.16189976  0.04872731    -0.54400
C1481       C  0.99777075  0.16866235  0.07617234     0.78200
O1482       O  0.91491280  0.30182958  0.00341419    -0.60100
O1483       O  0.95314994  0.33752056  0.00329037    -0.53100
C1484       C  0.92465470  0.32976395  0.00332672     0.70300
O1485       O  0.91398590  0.19856726  0.00493367    -0.74600
O1486       O  0.95147195  0.16238101  0.00154485    -0.55200
C1487       C  0.92322949  0.17058549  0.00367386     0.76300
O1488       O  0.00693330  0.29956221  0.08721871    -0.59800
O1489       O  0.00268309  0.33608759  0.05003305    -0.52900
C1490       C  0.00542022  0.32770291  0.07834348     0.72900
Zr1491     Zr  0.00374955  0.24830280  0.06521790     2.54700
O1492       O  0.96819394  0.25324912  0.10827380    -0.80400
O1493       O  0.54595603  0.24586225  0.10200606    -0.93800
Zr1494     Zr  0.93582262  0.24996441  0.00484314     2.64700
O1495       O  0.90087389  0.25011238  0.04881560    -0.98700
O1496       O  0.89515973  0.25190957  0.46601243    -0.80800
O1497       O  0.96890398  0.21931795  0.03522108    -0.84100
O1498       O  0.96937215  0.27883084  0.03622485    -2.18900
O1499       O  0.58633169  0.30146272  0.50344177    -0.67500
O1500       O  0.54761747  0.33759108  0.00363560    -0.52100
C1501       C  0.57694318  0.32941101  0.50361764     0.71200
O1502       O  0.49960691  0.19880273  0.41507822    -0.60400
O1503       O  0.50050009  0.16255078  0.45297609    -0.52400
C1504       C  0.49976930  0.17069624  0.42449134     0.73000
O1505       O  0.49718636  0.30275237  0.41609496    -0.71800
O1506       O  0.99999256  0.33802013  0.45444907    -0.50500
C1507       C  0.49759236  0.33051965  0.42625547     0.74400
O1508       O  0.58628173  0.19889839  0.99731320    -0.67200
O1509       O  0.54862030  0.16264997  0.99978071    -0.54400
C1510       C  0.57767653  0.17053947  0.49474044     0.72800
Zr1511     Zr  0.56449187  0.25029151  0.99921561     2.77500
O1512       O  0.60258949  0.25389190  0.45698950    -0.97900
O1513       O  0.60507786  0.24890622  0.03740492    -0.78700
Zr1514     Zr  0.49938172  0.25055689  0.43687176     2.73700
O1515       O  0.53971601  0.25122355  0.39786593    -0.80000
O1516       O  0.95531745  0.25126172  0.39913211    -0.99100
Zr1517     Zr  0.50062015  0.19095059  0.00095920     2.21500
Zr1518     Zr  0.00041831  0.30819488  0.00179389     2.11100
O1519       O  0.53303041  0.28017699  0.46762135    -2.47800
O1520       O  0.53294962  0.22043321  0.46711027    -0.79800
O1521       O  0.53413035  0.27946044  0.03369792    -0.72000
O1522       O  0.96572632  0.22046555  0.46897900    -2.32900
O1523       O  0.53427420  0.21975607  0.03301722    -2.29100
O1524       O  0.96651783  0.28007981  0.46990128    -0.73700
H1525       H  0.95769498  0.29200453  0.04971607     0.78300
H1526       H  0.95244137  0.20762557  0.45678490     0.79400
H1527       H  0.54522275  0.29371184  0.45479088     0.81600
H1528       H  0.54723550  0.20634511  0.04499818     0.79200
H1529       H  0.87617257  0.24764613  0.47790174     0.42200
H1530       H  0.94735423  0.27251963  0.39955749     0.41200
H1531       H  0.55604667  0.23803876  0.40647650     0.40900
H1532       H  0.60216684  0.27571464  0.45052788     0.38800
H1533       H  0.59497897  0.25545964  0.05676614     0.41900
H1534       H  0.55190179  0.22394561  0.10221903     0.36700
H1535       H  0.94898598  0.24368382  0.10092704     0.42800
H1536       H  0.90739798  0.26779753  0.06145184     0.39200
H1537       H  0.62274008  0.25139039  0.46702747     0.44200
H1538       H  0.53687031  0.24944699  0.12262509     0.42900
H1539       H  0.88089065  0.25642290  0.04017298     0.43000
H1540       H  0.96550762  0.24942298  0.37878238     0.43400
O1541       O  0.80231258  0.08556598  0.00094488    -0.75500
O1542       O  0.83809923  0.04749618  0.00049659    -0.54400
C1543       C  0.83017622  0.07588490  0.00095585     0.78200
O1544       O  0.69755144  0.50122105  0.08883364    -0.60100
O1545       O  0.66320365  0.00131760  0.04925061    -0.53100
C1546       C  0.67128565  0.00122772  0.07763717     0.70300
O1547       O  0.80081465  0.49726395  0.08889064    -0.74600
O1548       O  0.83683919  0.49814093  0.05065642    -0.55200
C1549       C  0.83113437  0.00142505  0.07684472     0.76300
O1550       O  0.69883525  0.08595927  0.99894333    -0.59800
O1551       O  0.66333415  0.04765903  0.00082682    -0.52900
C1552       C  0.67089263  0.07613753  0.99965645     0.72900
Zr1553     Zr  0.75072909  0.06444183  0.99899863     2.54700
O1554       O  0.75172426  0.10684077  0.03533243    -0.80400
O1555       O  0.75633800  0.09762351  0.45334227    -0.93800
Zr1556     Zr  0.74928270  0.49886263  0.06766112     2.64700
O1557       O  0.75134516  0.04228001  0.10447848    -0.98700
O1558       O  0.74612889  0.46004708  0.10797986    -0.80800
O1559       O  0.78060932  0.03373273  0.03273023    -0.84100
O1560       O  0.72136240  0.03398442  0.03358464    -2.18900
O1561       O  0.69852895  0.99793729  0.41544032    -0.67500
O1562       O  0.66289392  0.99836848  0.45396034    -0.52100
C1563       C  0.67143107  0.50057025  0.42686514     0.71200
O1564       O  0.80117351  0.41323488  0.00229910    -0.60400
O1565       O  0.83720898  0.45115068  0.00269568    -0.52400
C1566       C  0.83062044  0.42310967  0.50157715     0.73000
O1567       O  0.69726123  0.41371917  0.00445757    -0.71800
O1568       O  0.66177838  0.45205087  0.00397477    -0.50500
C1569       C  0.67060092  0.42399612  0.50410547     0.74400
O1570       O  0.80289617  0.99492277  0.41545253    -0.67200
O1571       O  0.83918311  0.49757870  0.45591978    -0.54400
C1572       C  0.83153995  0.49649977  0.42748051     0.72800
Zr1573     Zr  0.75069297  0.99757319  0.43612129     2.77500
O1574       O  0.75086605  0.45460703  0.40218763    -0.97900
O1575       O  0.75282175  0.03876384  0.39822480    -0.78700
Zr1576     Zr  0.74931475  0.43441509  0.00321251     2.70100
O1577       O  0.74984062  0.39346230  0.46629294    -0.80000
O1578       O  0.74999976  0.39511051  0.04324647    -0.99100
Zr1579     Zr  0.80828504  0.49857128  0.00310679     2.21500
Zr1580     Zr  0.69221526  0.00037623  0.00184437     2.11100
O1581       O  0.72134369  0.46562870  0.47041271    -2.47800
O1582       O  0.78079139  0.46558931  0.47083763    -0.79800
O1583       O  0.72093334  0.03148261  0.46649193    -0.72000
O1584       O  0.77893339  0.46581196  0.03611801    -2.32900
O1585       O  0.78078829  0.03057762  0.46696915    -2.29100
O1586       O  0.71948398  0.46616511  0.03599057    -0.73700
H1587       H  0.70821871  0.04687655  0.04590595     0.78300
H1588       H  0.79194342  0.45308918  0.04868649     0.79400
H1589       H  0.70794540  0.45303693  0.45809776     0.81600
H1590       H  0.79436882  0.04260182  0.45406828     0.79200
H1591       H  0.73843519  0.44150056  0.09741557     0.42200
H1592       H  0.73280157  0.40047995  0.05718885     0.41200
H1593       H  0.74728520  0.40406782  0.44628343     0.40900
H1594       H  0.73085525  0.44435879  0.40572961     0.38800
H1595       H  0.75587877  0.02817686  0.37831119     0.41900
H1596       H  0.75265848  0.11849614  0.46147821     0.36700
H1597       H  0.73762336  0.10044870  0.05213050     0.42800
H1598       H  0.73474686  0.05639179  0.09818176     0.39200
H1599       H  0.74893681  0.46424098  0.38162364     0.44200
H1600       H  0.73814726  0.09316556  0.44056484     0.42900
H1601       H  0.74352764  0.03223108  0.12344933     0.43000
H1602       H  0.74310879  0.37616774  0.03279202     0.43400
C1603       C  0.87226473  0.34773586  0.99003063    -0.26500
C1604       C  0.90101695  0.35435016  0.00286566    -0.14600
C1605       C  0.90712851  0.38374217  0.51579858     0.36000
C1606       C  0.88398426  0.40617065  0.51394018    -0.26000
C1607       C  0.85526999  0.39953255  0.50087321    -0.15200
C1608       C  0.84885709  0.36967506  0.98923150     0.37100
N1609       N  0.82018115  0.36190075  0.97530284    -0.89500
H1610       H  0.86785631  0.32532534  0.98022553     0.18200
H1611       H  0.88801676  0.42860023  0.52383237     0.18200
N1612       N  0.93533878  0.39043243  0.53142343    -0.88500
H1613       H  0.81104466  0.34290964  0.98697621     0.35600
H1614       H  0.82444743  0.35549007  0.95249965     0.40700
H1615       H  0.93624309  0.37632673  0.55093278     0.40300
H1616       H  0.93547108  0.41304334  0.53941428     0.35200
C1617       C  0.90685354  0.11649743  0.49067691    -0.26500
C1618       C  0.89960331  0.14611487  0.00422467    -0.14600
C1619       C  0.87059004  0.15067571  0.01817796     0.36000
C1620       C  0.84843925  0.12738029  0.01666106    -0.26000
C1621       C  0.85463337  0.09941411  0.00194054    -0.15200
C1622       C  0.88480958  0.09287251  0.48976500     0.37100
N1623       N  0.89208453  0.06411189  0.47531227    -0.89500
H1624       H  0.92920561  0.11265431  0.48037831     0.18200
H1625       H  0.82626110  0.13097001  0.02745002     0.18200
N1626       N  0.86376321  0.17874978  0.03412715    -0.88500
H1627       H  0.91482759  0.06398560  0.46753803     0.35600
H1628       H  0.87834634  0.06207598  0.45576979     0.40700
H1629       H  0.87814145  0.17991450  0.05326518     0.40300
H1630       H  0.84127847  0.17854116  0.04264445     0.35200
C1631       C  0.59375218  0.38331762  0.49403967    -0.26500
C1632       C  0.60054484  0.35390858  0.50537992    -0.14600
C1633       C  0.63005081  0.34815985  0.51744641     0.36000
C1634       C  0.65221911  0.37149028  0.51676435    -0.26000
C1635       C  0.64575565  0.40064884  0.50461151    -0.15200
C1636       C  0.61605579  0.40662558  0.49310505     0.37100
N1637       N  0.61045354  0.43349369  0.97377262    -0.89500
H1638       H  0.57195664  0.38620719  0.98029374     0.18200
H1639       H  0.67470355  0.36688412  0.52618015     0.18200
N1640       N  0.63736658  0.31887396  0.53087490    -0.88500
H1641       H  0.58584353  0.43653878  0.47280890     0.35600
H1642       H  0.62200133  0.43833971  0.45967599     0.40700
H1643       H  0.62390818  0.31634214  0.55074045     0.40300
H1644       H  0.65563623  0.32093880  0.04603458     0.35200
C1645       C  0.65267170  0.12860804  0.98656384    -0.26500
C1646       C  0.64594579  0.09945482  0.99874298    -0.14600
C1647       C  0.61587177  0.09354191  0.00995517     0.36000
C1648       C  0.59380728  0.11711018  0.00934957    -0.26000
C1649       C  0.60115793  0.14583874  0.49269217    -0.15200
C1650       C  0.63019044  0.15079077  0.47887603     0.37100
N1651       N  0.63735839  0.17944381  0.46419608    -0.89500
H1652       H  0.67532232  0.13349287  0.97734296     0.18200
H1653       H  0.57107213  0.11260742  0.01854622     0.18200
N1654       N  0.60790658  0.06404378  0.02267508    -0.88500
H1655       H  0.64546669  0.17669173  0.94901272     0.35600
H1656       H  0.65712035  0.18983422  0.98365177     0.40700
H1657       H  0.60648586  0.04862390  0.00435146     0.40300
H1658       H  0.58943186  0.06690297  0.53449189     0.35200
C1659       C  0.84993661  0.01079529  0.37396008    -0.26500
C1660       C  0.85610146  0.49686760  0.40381636    -0.14600
C1661       C  0.88611755  0.48588563  0.40930298     0.36000
C1662       C  0.90775590  0.48628211  0.38516436    -0.26000
C1663       C  0.90114954  0.99826972  0.35545547    -0.15200
C1664       C  0.87216685  0.01217256  0.35083673     0.37100
N1665       N  0.86474878  0.02885731  0.32340291    -0.89500
H1666       H  0.82794296  0.02156074  0.36983014     0.18200
H1667       H  0.93060023  0.47748415  0.38925419     0.18200
N1668       N  0.89445405  0.47370765  0.43890213    -0.88500
H1669       H  0.86371685  0.01368188  0.30488828     0.35600
H1670       H  0.88167704  0.04545262  0.31936677     0.40700
H1671       H  0.89604968  0.49220704  0.45407824     0.40300
H1672       H  0.91635628  0.46401809  0.43802800     0.35200
C1673       C  0.59315020  0.50590109  0.38727267    -0.26500
C1674       C  0.60148132  0.50356508  0.35599261    -0.14600
C1675       C  0.63305173  0.50067634  0.34854300     0.36000
C1676       C  0.65501498  0.49979922  0.37194123    -0.26000
C1677       C  0.64674411  0.50181407  0.40316960    -0.15200
C1678       C  0.61526699  0.50502992  0.41075854     0.37100
N1679       N  0.60541107  0.50739876  0.44219220    -0.89500
H1680       H  0.56923776  0.50825626  0.39373949     0.18200
H1681       H  0.67572139  0.97964683  0.36653882     0.18200
N1682       N  0.63870402  0.97504818  0.31935753    -0.88500
H1683       H  0.58981933  0.48965423  0.44665146     0.35600
H1684       H  0.59382804  0.52821286  0.44482689     0.40700
H1685       H  0.65496238  0.47753596  0.31468724     0.40300
H1686       H  0.65868252  0.51620387  0.31276396     0.35200
C1687       C  0.62901433  0.01052908  0.15359396    -0.26500
C1688       C  0.59800359  0.50145050  0.14685545    -0.14600
C1689       C  0.59353404  0.48683396  0.11825288     0.36000
C1690       C  0.61704149  0.48785194  0.09605077    -0.26000
C1691       C  0.64676785  0.00131742  0.10135436    -0.15200
C1692       C  0.65214435  0.01270957  0.13128736     0.37100
N1693       N  0.68080999  0.02709222  0.13887882    -0.89500
H1694       H  0.63332675  0.01934239  0.17647235     0.18200
H1695       H  0.61396988  0.47600505  0.07438153     0.18200
N1696       N  0.56564358  0.47033473  0.11214008    -0.88500
H1697       H  0.68113681  0.03372024  0.16199443     0.35600
H1698       H  0.68246291  0.04726914  0.12586902     0.40700
H1699       H  0.56466217  0.45161104  0.12724357     0.40300
H1700       H  0.56600266  0.46128282  0.08987322     0.35200
C1701       C  0.87433870  0.98597804  0.15098426    -0.26500
C1702       C  0.90233538  0.00094759  0.14544576    -0.14600
C1703       C  0.90533184  0.51071576  0.11796956     0.36000
C1704       C  0.88194182  0.50970735  0.09584179    -0.26000
C1705       C  0.85578699  0.00046370  0.10026233    -0.15200
C1706       C  0.85123064  0.98523824  0.12871088     0.37100
N1707       N  0.82337336  0.96847396  0.13471114    -0.89500
H1708       H  0.87065459  0.97417606  0.17270731     0.18200
H1709       H  0.88581963  0.52023338  0.07350136     0.18200
N1710       N  0.93402562  0.52555740  0.11084347    -0.88500
H1711       H  0.82351154  0.95892273  0.15683050     0.35600
H1712       H  0.82270515  0.95008711  0.11931905     0.40700
H1713       H  0.93681165  0.05018159  0.12590970     0.40300
H1714       H  0.93424855  0.53363896  0.08814390     0.35200
C1715       C  0.01119851  0.11849140  0.40539156    -0.26500
C1716       C  0.49914603  0.14592831  0.40089233    -0.14600
C1717       C  0.48678888  0.15085020  0.37125813     0.36000
C1718       C  0.48783312  0.12719167  0.34936715    -0.26000
C1719       C  0.99998987  0.09963770  0.35387283    -0.15200
C1720       C  0.01325868  0.09513649  0.38315372     0.37100
N1721       N  0.02949654  0.06728204  0.38998701    -0.89500
H1722       H  0.02189079  0.11507495  0.42759357     0.18200
H1723       H  0.47825069  0.13125378  0.32675900     0.18200
N1724       N  0.47275220  0.17966872  0.36352931    -0.88500
H1725       H  0.03764158  0.06749229  0.41258076     0.35600
H1726       H  0.04879971  0.06659299  0.37559612     0.40700
H1727       H  0.45306381  0.18180776  0.37721159     0.40300
H1728       H  0.46537787  0.17976473  0.34067300     0.35200
C1729       C  0.01189130  0.40680080  0.38450578    -0.26500
C1730       C  0.49415453  0.40178002  0.35741140    -0.14600
C1731       C  0.47828520  0.37383573  0.35311701     0.36000
C1732       C  0.47979775  0.35096827  0.37590595    -0.26000
C1733       C  0.49614001  0.35568360  0.40326160    -0.15200
C1734       C  0.01242500  0.38434040  0.40779264     0.37100
N1735       N  0.02847269  0.39017318  0.43598945    -0.89500
H1736       H  0.02362347  0.42844925  0.38805688     0.18200
H1737       H  0.46785018  0.32943304  0.37242608     0.18200
N1738       N  0.46046183  0.36888859  0.32580965    -0.88500
H1739       H  0.03743612  0.41245424  0.43615269     0.35600
H1740       H  0.04722786  0.37528657  0.43660889     0.40700
H1741       H  0.44254290  0.38480434  0.32597048     0.40300
H1742       H  0.45030546  0.34713284  0.32619314     0.35200
C1743       C  0.99550996  0.38167489  0.09484199    -0.26500
C1744       C  0.00604939  0.35212592  0.10240339    -0.14600
C1745       C  0.01641433  0.34655886  0.13278804     0.36000
C1746       C  0.51194263  0.37041764  0.15589946    -0.26000
C1747       C  0.50522310  0.40088309  0.14765201    -0.15200
C1748       C  0.49999873  0.40772412  0.11621956     0.37100
N1749       N  0.49337519  0.43838879  0.10628775    -0.89500
H1750       H  0.98759716  0.38631656  0.07172755     0.18200
H1751       H  0.51676842  0.36457211  0.17964910     0.18200
N1752       N  0.02756016  0.31682945  0.14179739    -0.88500
H1753       H  0.47183788  0.43833119  0.09583762     0.35600
H1754       H  0.50960503  0.44469077  0.08959544     0.40700
H1755       H  0.00851654  0.30233726  0.14397024     0.40300
H1756       H  0.03739356  0.31766729  0.16367420     0.35200
C1757       C  0.98517881  0.12549233  0.15132354    -0.26500
C1758       C  0.99862111  0.09697454  0.14476683    -0.14600
C1759       C  0.51198989  0.09304421  0.11671019     0.36000
C1760       C  0.51076495  0.11634926  0.09429759    -0.26000
C1761       C  0.99613528  0.14369271  0.09943586    -0.15200
C1762       C  0.98338517  0.14868395  0.12898275     0.37100
N1763       N  0.96837244  0.17715885  0.13618365    -0.89500
H1764       H  0.97554831  0.12964936  0.17398612     0.18200
H1765       H  0.52144266  0.11261271  0.07202570     0.18200
N1766       N  0.52716132  0.06456802  0.10986876    -0.88500
H1767       H  0.96057407  0.17722704  0.15900197     0.35600
H1768       H  0.94891137  0.17873198  0.12232320     0.40700
H1769       H  0.54649853  0.06311886  0.12391644     0.40300
H1770       H  0.53518575  0.06441075  0.08712966     0.35200
O1771       O  0.91564470  0.99948145  0.69843975    -0.75500
O1772       O  0.95365835  0.99908495  0.66232251    -0.54400
C1773       C  0.92522207  0.99943220  0.67029084     0.78200
O1774       O  0.00186525  0.08575613  0.80142378    -0.60100
O1775       O  0.00090050  0.04784115  0.83770474    -0.53100
C1776       C  0.00161145  0.07626442  0.82957190     0.70300
O1777       O  0.99957265  0.08432935  0.69733850    -0.74600
O1778       O  0.49987029  0.04812396  0.66326030    -0.55200
C1779       C  0.99951378  0.07458163  0.66938639     0.76300
O1780       O  0.91561924  0.99891054  0.80216965    -0.59800
O1781       O  0.95134048  0.49774088  0.83974510    -0.52900
C1782       C  0.92476524  0.99922024  0.83023072     0.72900
Zr1783     Zr  0.93695596  0.99831574  0.75035195     2.54700
O1784       O  0.89481911  0.03481854  0.74987988    -0.80400
O1785       O  0.89483983  0.45827577  0.75157895    -0.93800
Zr1786     Zr  0.00052271  0.06402894  0.74971994     2.64700
O1787       O  0.96011896  0.10251331  0.74922363    -0.98700
O1788       O  0.53645048  0.10650861  0.74804890    -0.80800
O1789       O  0.96792372  0.03189251  0.72039705    -0.84100
O1790       O  0.96805010  0.03191662  0.77978216    -2.18900
O1791       O  0.49425462  0.41575334  0.80385423    -0.67500
O1792       O  0.99718695  0.45157365  0.83910591    -0.52100
C1793       C  0.49409668  0.42537185  0.83187412     0.71200
O1794       O  0.58554221  0.50051128  0.69888852    -0.60400
O1795       O  0.54757522  0.00196212  0.66261552    -0.52400
C1796       C  0.57576164  0.50041394  0.67097778     0.73000
O1797       O  0.58567058  0.50076434  0.80257286    -0.71800
O1798       O  0.54824241  0.50122212  0.83922854    -0.50500
C1799       C  0.57664700  0.50109899  0.83083865     0.74400
O1800       O  0.50270650  0.41454680  0.70002785    -0.67200
O1801       O  0.50006131  0.45246813  0.66393231    -0.54400
C1802       C  0.50187136  0.42407609  0.67188534     0.72800
Zr1803     Zr  0.49922891  0.43637244  0.75172296     2.77500
O1804       O  0.53936395  0.39812753  0.75750386    -0.97900
O1805       O  0.96161487  0.39466016  0.74801554    -0.78700
Zr1806     Zr  0.56429566  0.49986921  0.75087552     2.70100
O1807       O  0.60073197  0.45758041  0.75040273    -0.80000
O1808       O  0.60246130  0.04501313  0.74796313    -0.99100
Zr1809     Zr  0.50086061  0.00074728  0.69206960     2.21500
Zr1810     Zr  0.99904241  0.49912349  0.81063028     2.11100
O1811       O  0.53246246  0.46757384  0.78132491    -2.47800
O1812       O  0.53230437  0.46745274  0.72127279    -0.79800
O1813       O  0.96700314  0.46601764  0.78129735    -0.72000
O1814       O  0.53257949  0.03457574  0.72093550    -2.32900
O1815       O  0.96672796  0.46579138  0.72148783    -2.29100
O1816       O  0.53284164  0.03486434  0.78065197    -0.73700
H1817       H  0.95529596  0.04446344  0.79289306     0.78300
H1818       H  0.54473493  0.04750145  0.70750044     0.79400
H1819       H  0.54470927  0.45485995  0.79466569     0.81600
H1820       H  0.95454842  0.45298949  0.70818495     0.79200
H1821       H  0.55564864  0.09643338  0.74125810     0.42200
H1822       H  0.60572653  0.05138853  0.76955203     0.41200
H1823       H  0.62115216  0.46756589  0.75034893     0.40900
H1824       H  0.52889908  0.37826825  0.75397253     0.38800
H1825       H  0.97320206  0.37534949  0.75079806     0.41900
H1826       H  0.90190162  0.44290326  0.76680762     0.36700
H1827       H  0.90413107  0.05436139  0.75672675     0.42800
H1828       H  0.97000575  0.12109411  0.74042078     0.39200
H1829       H  0.55276242  0.40102222  0.73923521     0.44200
H1830       H  0.89703261  0.44786308  0.73147701     0.42900
H1831       H  0.94585737  0.09555219  0.73301564     0.43000
H1832       H  0.62196912  0.03513122  0.74179227     0.43400
O1833       O  0.99934615  0.19725815  0.58592032    -0.75500
O1834       O  0.50253155  0.16143050  0.54799356    -0.54400
C1835       C  0.99788159  0.16950062  0.57610402     0.78200
O1836       O  0.91555817  0.30189073  0.50394572    -0.60100
O1837       O  0.95388090  0.33755151  0.50296087    -0.53100
C1838       C  0.92541106  0.32978145  0.50357105     0.70300
O1839       O  0.91450226  0.19800793  0.50419753    -0.74600
O1840       O  0.95200498  0.16183903  0.50083565    -0.55200
C1841       C  0.92373531  0.16994263  0.50298825     0.76300
O1842       O  0.00599794  0.30018703  0.58655053    -0.59800
O1843       O  0.00323755  0.33662690  0.54919593    -0.52900
C1844       C  0.00512606  0.32832055  0.57757357     0.72900
Zr1845     Zr  0.00352839  0.24876929  0.56484796     2.54700
O1846       O  0.96681641  0.25121330  0.60723736    -0.80400
O1847       O  0.54739707  0.24655691  0.60010082    -0.93800
Zr1848     Zr  0.93605921  0.24990336  0.50387768     2.64700
O1849       O  0.89948484  0.24868196  0.54651286    -0.98700
O1850       O  0.89315478  0.25034241  0.96896254    -0.80800
O1851       O  0.96917457  0.21967067  0.53440725    -0.84100
O1852       O  0.96935719  0.27904844  0.53549088    -2.18900
O1853       O  0.58562238  0.30176903  0.00249841    -0.67500
O1854       O  0.54864284  0.33747845  0.50198597    -0.52100
C1855       C  0.57597651  0.32958642  0.00396652     0.71200
O1856       O  0.49912901  0.20053554  0.91470155    -0.60400
O1857       O  0.50110675  0.16382756  0.95215067    -0.52400
C1858       C  0.50018248  0.17240034  0.92375507     0.73000
O1859       O  0.49466240  0.30372403  0.91731922    -0.71800
O1860       O  0.99727517  0.33763332  0.95475664    -0.50500
C1861       C  0.49517048  0.33152284  0.92738084     0.74400
O1862       O  0.58716543  0.19853672  0.49434922    -0.67200
O1863       O  0.54932500  0.16251852  0.49749976    -0.54400
C1864       C  0.57699646  0.17084218  0.99804626     0.72800
Zr1865     Zr  0.56551663  0.24987142  0.49899220     2.77500
O1866       O  0.60149214  0.25391137  0.95713667    -0.97900
O1867       O  0.60610700  0.24613898  0.53704997    -0.78700
Zr1868     Zr  0.49787548  0.25145827  0.93758424     2.73700
O1869       O  0.53635955  0.25381259  0.89680622    -0.80000
O1870       O  0.95469274  0.24868702  0.89964910    -0.99100
Zr1871     Zr  0.50142742  0.19086041  0.50084821     2.21500
Zr1872     Zr  0.00104013  0.30830047  0.50139198     2.11100
O1873       O  0.53182430  0.28077110  0.96819239    -2.47800
O1874       O  0.53186786  0.22099833  0.96720566    -0.79800
O1875       O  0.53500175  0.27929035  0.53322156    -0.72000
O1876       O  0.96528465  0.22035775  0.96978285    -2.32900
O1877       O  0.53512546  0.21960339  0.53290950    -2.29100
O1878       O  0.96591051  0.27985828  0.97043774    -0.73700
H1879       H  0.95752434  0.29217235  0.54890802     0.78300
H1880       H  0.95200152  0.20740642  0.95768481     0.79400
H1881       H  0.54389483  0.29443398  0.95541127     0.81600
H1882       H  0.54805608  0.20615894  0.54490373     0.79200
H1883       H  0.87513004  0.24407905  0.98148734     0.42200
H1884       H  0.93894036  0.23535004  0.90935589     0.41200
H1885       H  0.54957010  0.27147314  0.90219713     0.40900
H1886       H  0.62171282  0.25253614  0.96729630     0.38800
H1887       H  0.59898867  0.25909098  0.55435101     0.41900
H1888       H  0.55208835  0.22440466  0.60193830     0.36700
H1889       H  0.97884120  0.24583204  0.62573934     0.42800
H1890       H  0.90020430  0.26953493  0.55546071     0.39200
H1891       H  0.59941007  0.23431438  0.94586118     0.44200
H1892       H  0.53909719  0.25223588  0.62056427     0.42900
H1893       H  0.87914032  0.24744400  0.53659091     0.43000
H1894       H  0.94560569  0.26947569  0.90016953     0.43400
O1895       O  0.80286951  0.08436077  0.50107447    -0.75500
O1896       O  0.83831641  0.04597178  0.50138301    -0.54400
C1897       C  0.83068233  0.07447470  0.50153630     0.78200
O1898       O  0.69841657  0.50117045  0.58799994    -0.60100
O1899       O  0.66286495  0.00359274  0.54829155    -0.53100
C1900       C  0.67068313  0.00402319  0.57677783     0.70300
O1901       O  0.80155050  0.50060903  0.58865599    -0.74600
O1902       O  0.83775266  0.49945709  0.55061503    -0.55200
C1903       C  0.82988660  0.99948392  0.57718987     0.76300
O1904       O  0.69923602  0.08551730  0.49429337    -0.59800
O1905       O  0.66358609  0.04735503  0.49700699    -0.52900
C1906       C  0.67126993  0.07572934  0.49486518     0.72900
Zr1907     Zr  0.75097151  0.06388915  0.49789877     2.54700
O1908       O  0.74753811  0.10674751  0.53357084    -0.80400
O1909       O  0.75176313  0.09870172  0.95454125    -0.93800
Zr1910     Zr  0.75035915  0.50045820  0.56707444     2.64700
O1911       O  0.75136993  0.04374733  0.60202645    -0.98700
O1912       O  0.74946297  0.46191212  0.60780209    -0.80800
O1913       O  0.78027059  0.03317104  0.53223608    -0.84100
O1914       O  0.72112016  0.03381955  0.53239193    -2.18900
O1915       O  0.69864435  0.00205380  0.91690959    -0.67500
O1916       O  0.66263701  0.00113693  0.95501738    -0.52100
C1917       C  0.67012746  0.50115969  0.92664585     0.71200
O1918       O  0.80257806  0.41366920  0.50126923    -0.60400
O1919       O  0.83867617  0.45149702  0.50299071    -0.52400
C1920       C  0.82919174  0.42272539  0.00212026     0.73000
O1921       O  0.69842624  0.41407047  0.50418009    -0.71800
O1922       O  0.66310488  0.45248668  0.50380423    -0.50500
C1923       C  0.66944384  0.42361909  0.00435573     0.74400
O1924       O  0.80311563  0.99722030  0.91575356    -0.67200
O1925       O  0.83729300  0.49703518  0.95560408    -0.54400
C1926       C  0.82960310  0.49661038  0.92712505     0.72800
Zr1927     Zr  0.75085123  0.99802086  0.93678729     2.77500
O1928       O  0.74816917  0.46013284  0.89848193    -0.97900
O1929       O  0.75167423  0.03445122  0.89409268    -0.78700
Zr1930     Zr  0.75060278  0.43455985  0.50414245     2.70100
O1931       O  0.74961514  0.39530460  0.96328395    -0.80000
O1932       O  0.75110063  0.39798680  0.54668908    -0.99100
Zr1933     Zr  0.80968290  0.49890002  0.50296029     2.21500
Zr1934     Zr  0.69199690  0.00014004  0.50089811     2.11100
O1935       O  0.71992851  0.46610556  0.97003750    -2.47800
O1936       O  0.77918949  0.46618661  0.97025037    -0.79800
O1937       O  0.72108437  0.03185782  0.96741872    -0.72000
O1938       O  0.78018332  0.46670898  0.53638861    -2.32900
O1939       O  0.78063884  0.03167336  0.96736369    -2.29100
O1940       O  0.72073931  0.46703327  0.53617120    -0.73700
H1941       H  0.70796787  0.04704940  0.54432561     0.78300
H1942       H  0.79322936  0.45425990  0.54920496     0.79400
H1943       H  0.70662954  0.45369525  0.95742928     0.81600
H1944       H  0.79391961  0.04391335  0.95433256     0.79200
H1945       H  0.76452747  0.44628182  0.60114786     0.42200
H1946       H  0.73589361  0.40608377  0.56159461     0.41200
H1947       H  0.73205794  0.40047297  0.94990682     0.40900
H1948       H  0.75337752  0.47132170  0.87924269     0.38800
H1949       H  0.76167895  0.02338249  0.87689363     0.41900
H1950       H  0.74299015  0.11820239  0.96218302     0.36700
H1951       H  0.75504414  0.12468788  0.52163992     0.42800
H1952       H  0.73413821  0.05721862  0.59603762     0.39200
H1953       H  0.76619609  0.44696531  0.90243141     0.44200
H1954       H  0.73594620  0.09040516  0.94055694     0.42900
H1955       H  0.74477923  0.03437089  0.62179061     0.43000
H1956       H  0.74138089  0.37924683  0.53832231     0.43400
C1957       C  0.87346915  0.34797538  0.48959497    -0.26500
C1958       C  0.90192619  0.35435214  0.50311221    -0.14600
C1959       C  0.90627590  0.38393966  0.01513221     0.36000
C1960       C  0.88281982  0.40611455  0.01392271    -0.26000
C1961       C  0.85388620  0.39919976  0.00152668    -0.15200
C1962       C  0.85023358  0.37004206  0.48845107     0.37100
N1963       N  0.82166275  0.36233374  0.47427957    -0.89500
H1964       H  0.86913984  0.32562665  0.47960293     0.18200
H1965       H  0.88688960  0.42864026  0.02358815     0.18200
N1966       N  0.93495386  0.39114466  0.02959914    -0.88500
H1967       H  0.81232537  0.34346444  0.48600037     0.35600
H1968       H  0.82611950  0.35571479  0.45157205     0.40700
H1969       H  0.93659112  0.37737598  0.04928523     0.40300
H1970       H  0.93517758  0.41388938  0.03719397     0.35200
C1971       C  0.90596328  0.11795223  0.98990294    -0.26500
C1972       C  0.90013375  0.14522050  0.50379704    -0.14600
C1973       C  0.87091072  0.14991474  0.51725678     0.36000
C1974       C  0.84885476  0.12645906  0.51607270    -0.26000
C1975       C  0.85534087  0.09798301  0.50248032    -0.15200
C1976       C  0.88377595  0.09461007  0.98843332     0.37100
N1977       N  0.89055672  0.06643449  0.97265542    -0.89500
H1978       H  0.92809600  0.11440643  0.97902183     0.18200
H1979       H  0.82649492  0.13032658  0.52636162     0.18200
N1980       N  0.86384267  0.17820807  0.53268043    -0.88500
H1981       H  0.91313308  0.06648440  0.96439568     0.35600
H1982       H  0.87638785  0.06529098  0.95335204     0.40700
H1983       H  0.87796451  0.17962876  0.55199682     0.40300
H1984       H  0.84125929  0.17808871  0.54092502     0.35200
C1985       C  0.59369101  0.38238515  0.99146650    -0.26500
C1986       C  0.59936280  0.35406474  0.00575753    -0.14600
C1987       C  0.62767662  0.34917848  0.02061663     0.36000
C1988       C  0.64999822  0.37235743  0.01988088    -0.26000
C1989       C  0.64469583  0.40037386  0.00481362    -0.15200
C1990       C  0.61619878  0.40543756  0.99030864     0.37100
N1991       N  0.60876925  0.43591247  0.47970892    -0.89500
H1992       H  0.57115515  0.38796436  0.48501469     0.18200
H1993       H  0.67165121  0.36859200  0.03139323     0.18200
N1994       N  0.63361091  0.32087874  0.03665006    -0.88500
H1995       H  0.58836033  0.43345948  0.96453401     0.35600
H1996       H  0.62564946  0.43435895  0.95505906     0.40700
H1997       H  0.61825141  0.31948853  0.05519503     0.40300
H1998       H  0.66022060  0.31825416  0.53798472     0.35200
C1999       C  0.65229313  0.12741495  0.47924833    -0.26500
C2000       C  0.64626366  0.09888198  0.49324059    -0.14600
C2001       C  0.61691617  0.09361847  0.50655798     0.36000
C2002       C  0.59480209  0.11705642  0.50592500    -0.26000
C2003       C  0.60076909  0.14635624  0.99739403    -0.15200
C2004       C  0.63054572  0.15181550  0.98551113     0.37100
N2005       N  0.63846723  0.18070448  0.97171530    -0.89500
H2006       H  0.67444129  0.13176981  0.46860625     0.18200
H2007       H  0.57265424  0.11301157  0.51665536     0.18200
N2008       N  0.60998077  0.06519084  0.52206669    -0.88500
H2009       H  0.64309061  0.17507955  0.44121704     0.35600
H2010       H  0.65663578  0.18875453  0.47494275     0.40700
H2011       H  0.60620460  0.04864650  0.50512590     0.40300
H2012       H  0.58600887  0.06457154  0.03261244     0.35200
C2013       C  0.84995199  0.01249545  0.87378037    -0.26500
C2014       C  0.85423784  0.49634324  0.90348375    -0.14600
C2015       C  0.88316192  0.48255423  0.90841061     0.36000
C2016       C  0.90530327  0.48318284  0.88465723    -0.26000
C2017       C  0.90084244  0.99943165  0.85469952    -0.15200
C2018       C  0.87182863  0.01337163  0.85026258     0.37100
N2019       N  0.86387194  0.02917963  0.82245232    -0.89500
H2020       H  0.82803005  0.02350274  0.86991201     0.18200
H2021       H  0.92739216  0.47248868  0.88838064     0.18200
N2022       N  0.88970038  0.46714723  0.93695617    -0.88500
H2023       H  0.86260297  0.01339658  0.80445336     0.35600
H2024       H  0.88064622  0.04570848  0.81757417     0.40700
H2025       H  0.89249475  0.48399086  0.95378865     0.40300
H2026       H  0.91069430  0.45567827  0.93556355     0.35200
C2027       C  0.59261809  0.50761490  0.88597234    -0.26500
C2028       C  0.60076679  0.50134288  0.85521042    -0.14600
C2029       C  0.63204114  0.49565582  0.84828835     0.36000
C2030       C  0.65389657  0.49586161  0.87183526    -0.26000
C2031       C  0.64574306  0.50184865  0.90261178    -0.15200
C2032       C  0.61468961  0.50830531  0.90948108     0.37100
N2033       N  0.60541495  0.51630012  0.94011318    -0.89500
H2034       H  0.56896270  0.51239007  0.89193976     0.18200
H2035       H  0.67843571  0.99636752  0.86539027     0.18200
N2036       N  0.64356908  0.99800616  0.81683840    -0.88500
H2037       H  0.58859247  0.50069624  0.94736491     0.35600
H2038       H  0.59556544  0.53815055  0.93942560     0.40700
H2039       H  0.65248052  0.46775481  0.81723238     0.40300
H2040       H  0.65838328  0.50572198  0.81109988     0.35200
C2041       C  0.62862199  0.01349292  0.65294404    -0.26500
C2042       C  0.59909454  0.50139905  0.64623129    -0.14600
C2043       C  0.59460870  0.48663707  0.61769502     0.36000
C2044       C  0.61811631  0.48749862  0.59546067    -0.26000
C2045       C  0.64601302  0.00538053  0.60036377    -0.15200
C2046       C  0.65190339  0.01527460  0.63076453     0.37100
N2047       N  0.68133234  0.02754656  0.63908423    -0.89500
H2048       H  0.63340370  0.02124984  0.67610599     0.18200
H2049       H  0.61514247  0.47532819  0.57395877     0.18200
N2050       N  0.56655562  0.47037912  0.61159161    -0.88500
H2051       H  0.68202816  0.03286929  0.66253284     0.35600
H2052       H  0.68413560  0.04827197  0.62718864     0.40700
H2053       H  0.56535298  0.45168333  0.62671336     0.40300
H2054       H  0.56676113  0.46135013  0.58931617     0.35200
C2055       C  0.87180080  0.98908084  0.65321191    -0.26500
C2056       C  0.90152886  0.99929633  0.64569422    -0.14600
C2057       C  0.90553871  0.51400329  0.61801958     0.36000
C2058       C  0.88213843  0.51325957  0.59596054    -0.26000
C2059       C  0.85438582  0.99860881  0.60087918    -0.15200
C2060       C  0.84833633  0.98835025  0.63126158     0.37100
N2061       N  0.81858161  0.97658229  0.63969575    -0.89500
H2062       H  0.86685365  0.98102590  0.67634895     0.18200
H2063       H  0.88575203  0.52441056  0.57387973     0.18200
N2064       N  0.93391640  0.52964145  0.61134960    -0.88500
H2065       H  0.81778533  0.97060623  0.66302318     0.35600
H2066       H  0.81515846  0.95629764  0.62736904     0.40700
H2067       H  0.94198354  0.04000803  0.61821243     0.40300
H2068       H  0.93389660  0.53850222  0.58893922     0.35200
C2069       C  0.01030746  0.11725436  0.90668469    -0.26500
C2070       C  0.50040428  0.14816169  0.89974635    -0.14600
C2071       C  0.48678372  0.15283773  0.87060962     0.36000
C2072       C  0.48762104  0.12926602  0.84870425    -0.26000
C2073       C  0.00141356  0.10003119  0.85410739    -0.15200
C2074       C  0.01211387  0.09410293  0.88423742     0.37100
N2075       N  0.02537291  0.06489592  0.89185168    -0.89500
H2076       H  0.01892144  0.11266547  0.92958763     0.18200
H2077       H  0.47669266  0.13289109  0.82665153     0.18200
N2078       N  0.47164606  0.18124165  0.86340947    -0.88500
H2079       H  0.03182789  0.06418886  0.91498926     0.35600
H2080       H  0.04553908  0.06275247  0.87889609     0.40700
H2081       H  0.45223119  0.18272934  0.87756011     0.40300
H2082       H  0.46376000  0.18125023  0.84071502     0.35200
C2083       C  0.00536028  0.40666448  0.88466924    -0.26500
C2084       C  0.49157271  0.40196975  0.85691228    -0.14600
C2085       C  0.48021295  0.37204251  0.85137572     0.36000
C2086       C  0.48135753  0.34984097  0.87485513    -0.26000
C2087       C  0.49311100  0.35666670  0.90410510    -0.15200
C2088       C  0.00623257  0.38455393  0.90820489     0.37100
N2089       N  0.02090460  0.39166856  0.93686890    -0.89500
H2090       H  0.01586363  0.42887302  0.88852277     0.18200
H2091       H  0.47291208  0.32693568  0.87016277     0.18200
N2092       N  0.46743153  0.36417536  0.82198577    -0.88500
H2093       H  0.02850840  0.41444741  0.93708168     0.35600
H2094       H  0.04050418  0.37798758  0.93830142     0.40700
H2095       H  0.44743293  0.37706998  0.81924032     0.40300
H2096       H  0.46080562  0.34110818  0.82149722     0.35200
C2097       C  0.99878960  0.38319872  0.59295896    -0.26500
C2098       C  0.00565891  0.35282402  0.60154391    -0.14600
C2099       C  0.01207121  0.34651264  0.63290138     0.36000
C2100       C  0.51415825  0.37099240  0.65449180    -0.26000
C2101       C  0.50338370  0.40048573  0.64714530    -0.15200
C2102       C  0.49455393  0.40664256  0.61643426     0.37100
N2103       N  0.48316267  0.43621362  0.60767549    -0.89500
H2104       H  0.99363903  0.38841539  0.56914864     0.18200
H2105       H  0.52173134  0.36581994  0.67764926     0.18200
N2106       N  0.01806580  0.31576511  0.64335844    -0.88500
H2107       H  0.46114557  0.43334289  0.59869660     0.35600
H2108       H  0.49729272  0.44492173  0.59015512     0.40700
H2109       H  0.99721591  0.30386668  0.64292910     0.40300
H2110       H  0.02492999  0.31563961  0.66638231     0.35200
C2111       C  0.98521276  0.12653426  0.65133528    -0.26500
C2112       C  0.99859779  0.09803741  0.64468491    -0.14600
C2113       C  0.51762634  0.09652667  0.62002383     0.36000
C2114       C  0.51677141  0.11905305  0.59683393    -0.26000
C2115       C  0.99640884  0.14479202  0.59952924    -0.15200
C2116       C  0.98383326  0.14989320  0.62916720     0.37100
N2117       N  0.96945939  0.17861864  0.63666309    -0.89500
H2118       H  0.97544163  0.13057721  0.67396307     0.18200
H2119       H  0.53191314  0.11713611  0.57704440     0.18200
N2120       N  0.53875437  0.07130475  0.61777863    -0.88500
H2121       H  0.96187167  0.17872560  0.65955564     0.35600
H2122       H  0.94992262  0.18067625  0.62298287     0.40700
H2123       H  0.55453152  0.07348310  0.63568820     0.40300
H2124       H  0.55137429  0.07258444  0.59725829     0.35200
O2125       O  0.91405484  0.49752889  0.19997048    -0.75500
O2126       O  0.95199003  0.49804420  0.16373834    -0.54400
C2127       C  0.92363203  0.49787444  0.17185553     0.78200
O2128       O  0.99812664  0.58565352  0.30296305    -0.60100
O2129       O  0.00008472  0.54759269  0.33907837    -0.53100
C2130       C  0.99943506  0.57600702  0.33107357     0.70300
O2131       O  0.99558940  0.58474546  0.19807524    -0.74600
O2132       O  0.49896253  0.54732690  0.16452489    -0.55200
C2133       C  0.99620257  0.57472076  0.17014067     0.76300
O2134       O  0.91454512  0.49575122  0.30340367    -0.59800
O2135       O  0.95334326  0.99871302  0.33912790    -0.52900
C2136       C  0.92391600  0.49752094  0.33127276     0.72900
Zr2137     Zr  0.93550602  0.49650795  0.25170729     2.54700
O2138       O  0.89381133  0.53351983  0.25242820    -0.80400
O2139       O  0.90129430  0.95363314  0.24940195    -0.93800
Zr2140     Zr  0.99621317  0.56439538  0.25075830     2.64700
O2141       O  0.95257229  0.59915575  0.25134311    -0.98700
O2142       O  0.53600068  0.60583932  0.25092905    -0.80800
O2143       O  0.96497337  0.53095677  0.22137436    -0.84100
O2144       O  0.96556896  0.53098727  0.28119440    -2.18900
O2145       O  0.49696251  0.91249669  0.30148275    -0.67500
O2146       O  0.99830943  0.95133565  0.33873096    -0.52100
C2147       C  0.49740767  0.92187096  0.32950736     0.71200
O2148       O  0.58617287  0.99596276  0.19913747    -0.60400
O2149       O  0.54638374  0.50002993  0.16384547    -0.52400
C2150       C  0.57669563  0.99774602  0.17116851     0.73000
O2151       O  0.58585892  0.99829812  0.30307080    -0.71800
O2152       O  0.54792745  0.99738838  0.33928900    -0.50500
C2153       C  0.57638782  0.99735426  0.33117369     0.74400
O2154       O  0.50233708  0.91427060  0.19814931    -0.67200
O2155       O  0.50320605  0.95282303  0.16265117    -0.54400
C2156       C  0.50334429  0.92432134  0.17026303     0.72800
Zr2157     Zr  0.49994221  0.93465719  0.25020127     2.77500
O2158       O  0.53955594  0.89545393  0.25211625    -0.97900
O2159       O  0.96405177  0.89229297  0.24909291    -0.78700
Zr2160     Zr  0.56521271  0.99816846  0.25112955     2.70100
O2161       O  0.60438624  0.95841261  0.25237644    -0.80000
O2162       O  0.60479601  0.54029466  0.25081100    -0.99100
Zr2163     Zr  0.49972772  0.49985683  0.19353172     2.21500
Zr2164     Zr  0.00078446  0.99892896  0.30975749     2.11100
O2165       O  0.53278600  0.96553984  0.28051866    -2.47800
O2166       O  0.53354910  0.96607503  0.22084663    -0.79800
O2167       O  0.96875544  0.96559493  0.28056277    -0.72000
O2168       O  0.53200803  0.53328770  0.22227287    -2.32900
O2169       O  0.96844914  0.96474069  0.22070335    -2.29100
O2170       O  0.53233893  0.53377638  0.28154230    -0.73700
H2171       H  0.95255399  0.54303522  0.29454551     0.78300
H2172       H  0.54429968  0.54608128  0.20883102     0.79400
H2173       H  0.54500354  0.95258182  0.29369469     0.81600
H2174       H  0.95619817  0.95207719  0.20729360     0.79200
H2175       H  0.52387070  0.62461279  0.25487853     0.42200
H2176       H  0.62322687  0.52936981  0.24321172     0.41200
H2177       H  0.59294736  0.93894521  0.24990659     0.40900
H2178       H  0.52873072  0.87616175  0.24693896     0.38800
H2179       H  0.95009185  0.89787772  0.23209051     0.41900
H2180       H  0.90278753  0.94547331  0.22818554     0.36700
H2181       H  0.90261491  0.55192412  0.26236418     0.42800
H2182       H  0.96115928  0.61911598  0.24445961     0.39200
H2183       H  0.55275351  0.89970752  0.23395865     0.44200
H2184       H  0.88064184  0.96294613  0.25052570     0.42900
H2185       H  0.93966342  0.59234579  0.23397251     0.43000
H2186       H  0.59912619  0.55424166  0.23373842     0.43400
O2187       O  0.99843933  0.69683642  0.08461321    -0.75500
O2188       O  0.49958842  0.66272926  0.04949747    -0.54400
C2189       C  0.99758422  0.66887109  0.07514856     0.78200
O2190       O  0.91459471  0.80155590  0.00287953    -0.60100
O2191       O  0.95290044  0.83721844  0.00213899    -0.53100
C2192       C  0.92439128  0.82945618  0.00275669     0.70300
O2193       O  0.91347475  0.69836086  0.00553727    -0.74600
O2194       O  0.95100800  0.66225394  0.00229672    -0.55200
C2195       C  0.92272856  0.67031409  0.00504102     0.76300
O2196       O  0.00572606  0.80040981  0.08517723    -0.59800
O2197       O  0.00245311  0.83687046  0.04770481    -0.52900
C2198       C  0.00491739  0.82855524  0.07601424     0.72900
Zr2199     Zr  0.00304107  0.74870420  0.06380351     2.54700
O2200       O  0.96687039  0.75190166  0.10651035    -0.80400
O2201       O  0.54640355  0.75033519  0.10002684    -0.93800
Zr2202     Zr  0.93556464  0.74980855  0.00318123     2.64700
O2203       O  0.90125528  0.75065030  0.04765781    -0.98700
O2204       O  0.89483319  0.74691957  0.46933467    -0.80800
O2205       O  0.96852452  0.71944985  0.03380829    -0.84100
O2206       O  0.96907205  0.77906107  0.03429885    -2.18900
O2207       O  0.58790107  0.80121752  0.50105336    -0.67500
O2208       O  0.54957173  0.83735503  0.00298926    -0.52100
C2209       C  0.57831760  0.82911119  0.50259414     0.71200
O2210       O  0.49912489  0.69892530  0.41522898    -0.60400
O2211       O  0.50082410  0.66261562  0.45320222    -0.52400
C2212       C  0.49967943  0.67091002  0.42478062     0.73000
O2213       O  0.49819698  0.80208011  0.41634692    -0.71800
O2214       O  0.99901051  0.83711432  0.45464771    -0.50500
C2215       C  0.49931504  0.82996797  0.42586267     0.74400
O2216       O  0.58671084  0.69794056  0.99977175    -0.67200
O2217       O  0.54849309  0.66214796  0.00132934    -0.54400
C2218       C  0.57828347  0.67032884  0.49648810     0.72800
Zr2219     Zr  0.56575352  0.74971263  0.99944549     2.77500
O2220       O  0.60005797  0.75198803  0.45294503    -0.97900
O2221       O  0.60768951  0.74716704  0.03611478    -0.78700
Zr2222     Zr  0.49970356  0.75041553  0.43719822     2.73700
O2223       O  0.53976276  0.75225983  0.39795362    -0.80000
O2224       O  0.95650895  0.74782126  0.40146763    -0.99100
Zr2225     Zr  0.50067000  0.69107231  0.00129882     2.21500
Zr2226     Zr  0.00048997  0.80835169  0.00006541     2.11100
O2227       O  0.53368251  0.78016448  0.46733392    -2.47800
O2228       O  0.53333342  0.71996916  0.46687959    -0.79800
O2229       O  0.53492340  0.77979619  0.03272686    -0.72000
O2230       O  0.96757803  0.71976902  0.47061052    -2.32900
O2231       O  0.53430990  0.72017341  0.03307966    -2.29100
O2232       O  0.96781618  0.77907921  0.47081959    -0.73700
H2233       H  0.95732454  0.79224605  0.04768800     0.78300
H2234       H  0.95448371  0.70662479  0.45851395     0.79400
H2235       H  0.54586334  0.79348755  0.45428140     0.81600
H2236       H  0.54686782  0.70690653  0.04561481     0.79200
H2237       H  0.90389693  0.73864199  0.45013512     0.42200
H2238       H  0.94452587  0.76662039  0.40575976     0.41200
H2239       H  0.55307231  0.73450116  0.40265432     0.40900
H2240       H  0.62102111  0.74995185  0.46128829     0.38800
H2241       H  0.59832831  0.75335717  0.05596567     0.41900
H2242       H  0.55315167  0.72867869  0.10106937     0.36700
H2243       H  0.94658528  0.74862266  0.09694017     0.42800
H2244       H  0.90319369  0.77158801  0.05623413     0.39200
H2245       H  0.59641723  0.73240351  0.44202376     0.44200
H2246       H  0.53747718  0.75446148  0.12060535     0.42900
H2247       H  0.88039804  0.75001708  0.03881865     0.43000
H2248       H  0.96606321  0.75161038  0.38105935     0.43400
O2249       O  0.80151265  0.58453931  0.00590577    -0.75500
O2250       O  0.83695552  0.54630992  0.00418252    -0.54400
C2251       C  0.82935932  0.57478673  0.00546174     0.78200
O2252       O  0.69924031  0.00084281  0.08697332    -0.60100
O2253       O  0.66214596  0.50003652  0.05041846    -0.53100
C2254       C  0.66980425  0.50135068  0.07890752     0.70300
O2255       O  0.80317853  0.00232484  0.08664900    -0.74600
O2256       O  0.83906311  0.00094020  0.04828495    -0.55200
C2257       C  0.82876690  0.49723116  0.07917140     0.76300
O2258       O  0.69803321  0.58457468  0.00203952    -0.59800
O2259       O  0.66227818  0.54638524  0.00291719    -0.52900
C2260       C  0.67006579  0.57481487  0.00242622     0.72900
Zr2261     Zr  0.74990068  0.56332615  0.00333114     2.54700
O2262       O  0.74922759  0.59932914  0.04604122    -0.80400
O2263       O  0.75585620  0.59974598  0.45817537    -0.93800
Zr2264     Zr  0.75115019  0.00187722  0.06592871     2.64700
O2265       O  0.75304582  0.54017074  0.10510338    -0.98700
O2266       O  0.75113400  0.96208030  0.10545046    -0.80800
O2267       O  0.77940869  0.53132691  0.03583353    -0.84100
O2268       O  0.71982217  0.53167011  0.03591388    -2.18900
O2269       O  0.69950751  0.50040765  0.41725551    -0.67500
O2270       O  0.66357437  0.49966769  0.45538416    -0.52100
C2271       C  0.67056996  0.99797953  0.42539058     0.71200
O2272       O  0.80183879  0.91410478  0.00167955    -0.60400
O2273       O  0.83811394  0.95177596  0.00177463    -0.52400
C2274       C  0.82876871  0.92161190  0.49943230     0.73000
O2275       O  0.69900196  0.91432727  0.00528081    -0.71800
O2276       O  0.66364571  0.95266835  0.00343661    -0.50500
C2277       C  0.66979350  0.92519174  0.50331632     0.74400
O2278       O  0.80369586  0.49595852  0.41774862    -0.67200
O2279       O  0.83814213  0.99760902  0.45391478    -0.54400
C2280       C  0.83068744  0.99593841  0.42545187     0.72800
Zr2281     Zr  0.75154782  0.49750992  0.43804373     2.77500
O2282       O  0.74954490  0.95799143  0.39669802    -0.97900
O2283       O  0.75529730  0.53411520  0.39568223    -0.78700
Zr2284     Zr  0.75051498  0.93582873  0.00355464     2.70100
O2285       O  0.74774922  0.89516255  0.46391959    -0.80000
O2286       O  0.75287887  0.89967590  0.04633375    -0.99100
Zr2287     Zr  0.80968261  0.99979730  0.00116335     2.21500
Zr2288     Zr  0.69103455  0.49909587  0.00284222     2.11100
O2289       O  0.72056422  0.96605764  0.46900250    -2.47800
O2290       O  0.77984849  0.96565549  0.46914959    -0.79800
O2291       O  0.72204261  0.53139862  0.46879003    -0.72000
O2292       O  0.78050250  0.96815539  0.03508190    -2.32900
O2293       O  0.78125593  0.53102813  0.46901822    -2.29100
O2294       O  0.72094268  0.96848346  0.03555664    -0.73700
H2295       H  0.70663907  0.54438971  0.04836135     0.78300
H2296       H  0.79371430  0.95581062  0.04785199     0.79400
H2297       H  0.70720782  0.95328087  0.45684603     0.81600
H2298       H  0.79477411  0.54327067  0.45624651     0.79200
H2299       H  0.76679572  0.94715429  0.09855637     0.42200
H2300       H  0.73749963  0.90726227  0.06132749     0.41200
H2301       H  0.75034474  0.87575497  0.47552827     0.40900
H2302       H  0.73336454  0.94351248  0.40362994     0.38800
H2303       H  0.74503225  0.52389720  0.37820540     0.41900
H2304       H  0.74496886  0.61833481  0.46536158     0.36700
H2305       H  0.76385492  0.59064518  0.06106965     0.42800
H2306       H  0.73570838  0.55398090  0.10033183     0.39200
H2307       H  0.74077874  0.96824936  0.37838324     0.44200
H2308       H  0.74241903  0.59108170  0.44207857     0.42900
H2309       H  0.74737096  0.53051397  0.12501230     0.43000
H2310       H  0.74388257  0.88048814  0.03818320     0.43400
C2311       C  0.87160790  0.84731391  0.99100951    -0.26500
C2312       C  0.90078951  0.85404277  0.00278204    -0.14600
C2313       C  0.90792020  0.88472964  0.50560472     0.36000
C2314       C  0.88401507  0.90644332  0.50451342    -0.26000
C2315       C  0.85352551  0.89780997  0.49845934    -0.15200
C2316       C  0.84848013  0.86952571  0.99001670     0.37100
N2317       N  0.81934122  0.86158629  0.97716377    -0.89500
H2318       H  0.86666382  0.82465811  0.98204846     0.18200
H2319       H  0.88925962  0.93026380  0.50925834     0.18200
N2320       N  0.93842575  0.89458061  0.51312196    -0.88500
H2321       H  0.81026158  0.84319765  0.98981919     0.35600
H2322       H  0.82289756  0.85423775  0.95453174     0.40700
H2323       H  0.94348488  0.88542503  0.53475521     0.40300
H2324       H  0.93941287  0.91843500  0.51546911     0.35200
C2325       C  0.90666838  0.61758793  0.49008396    -0.26500
C2326       C  0.89913193  0.64555058  0.00727390    -0.14600
C2327       C  0.86913659  0.65122399  0.01854003     0.36000
C2328       C  0.84709660  0.62769216  0.01781899    -0.26000
C2329       C  0.85412494  0.59833201  0.00647631    -0.15200
C2330       C  0.88402035  0.59453634  0.48884871     0.37100
N2331       N  0.88859451  0.56806358  0.46967446    -0.89500
H2332       H  0.92760833  0.61494538  0.47679299     0.18200
H2333       H  0.82419522  0.63239002  0.02638011     0.18200
N2334       N  0.86103798  0.68077476  0.03078033    -0.88500
H2335       H  0.91005316  0.56898305  0.45881272     0.35600
H2336       H  0.87225219  0.56884159  0.45216698     0.40700
H2337       H  0.87379875  0.68407304  0.05080545     0.40300
H2338       H  0.83795059  0.68129821  0.03741537     0.35200
C2339       C  0.59387836  0.88331518  0.49336415    -0.26500
C2340       C  0.60148600  0.85388119  0.50418720    -0.14600
C2341       C  0.63107166  0.84858071  0.51605837     0.36000
C2342       C  0.65264390  0.87239369  0.51560734    -0.26000
C2343       C  0.64538420  0.90159733  0.50395675    -0.15200
C2344       C  0.61552663  0.90718053  0.49277104     0.37100
N2345       N  0.60980591  0.93558473  0.97965546    -0.89500
H2346       H  0.57229698  0.88752853  0.98495574     0.18200
H2347       H  0.67529744  0.86809559  0.52476926     0.18200
N2348       N  0.63903314  0.81925901  0.52902135    -0.88500
H2349       H  0.58440158  0.93687828  0.47347193     0.35600
H2350       H  0.62037510  0.93991312  0.46007965     0.40700
H2351       H  0.62556762  0.81604872  0.54878705     0.40300
H2352       H  0.65945865  0.82002306  0.04344414     0.35200
C2353       C  0.65169244  0.62660434  0.98778298    -0.26500
C2354       C  0.64535838  0.59822949  0.00182637    -0.14600
C2355       C  0.61604585  0.59328820  0.01531666     0.36000
C2356       C  0.59411351  0.61699497  0.01456487    -0.26000
C2357       C  0.60188499  0.64564490  0.49552687    -0.15200
C2358       C  0.63206423  0.65114990  0.48467034     0.37100
N2359       N  0.64055775  0.68025137  0.47168310    -0.89500
H2360       H  0.67384235  0.63068927  0.97703616     0.18200
H2361       H  0.57191403  0.61336490  0.02534620     0.18200
N2362       N  0.60888030  0.56481472  0.03064708    -0.88500
H2363       H  0.64276355  0.67309350  0.94848734     0.35600
H2364       H  0.65661880  0.68754594  0.98174995     0.40700
H2365       H  0.60622239  0.54808112  0.01367955     0.40300
H2366       H  0.58518644  0.56328405  0.52804299     0.35200
C2367       C  0.84887433  0.50859994  0.37466002    -0.26500
C2368       C  0.85567333  0.99646384  0.40224892    -0.14600
C2369       C  0.88498950  0.98374796  0.40775758     0.36000
C2370       C  0.90729727  0.98456465  0.38414974    -0.26000
C2371       C  0.90025055  0.49764849  0.35585773    -0.15200
C2372       C  0.87031685  0.50923457  0.35085460     0.37100
N2373       N  0.86101886  0.52280582  0.32230273    -0.89500
H2374       H  0.82623008  0.51777545  0.37022354     0.18200
H2375       H  0.92950461  0.97420642  0.38810230     0.18200
N2376       N  0.89181107  0.96934729  0.43677916    -0.88500
H2377       H  0.86073229  0.50603080  0.30518412     0.35600
H2378       H  0.87644299  0.54029296  0.31640599     0.40700
H2379       H  0.89376276  0.98672162  0.45319718     0.40300
H2380       H  0.91326646  0.95871537  0.43591913     0.35200
C2381       C  0.59279090  0.00518380  0.38584246    -0.26500
C2382       C  0.60014244  0.99615891  0.35564973    -0.14600
C2383       C  0.63042178  0.98641559  0.34917814     0.36000
C2384       C  0.65271544  0.98720497  0.37221567    -0.26000
C2385       C  0.64569248  0.99715829  0.40212071    -0.15200
C2386       C  0.61517700  0.00592229  0.40898658     0.37100
N2387       N  0.60679831  0.01618424  0.43918888    -0.89500
H2388       H  0.56965115  0.01222324  0.39152540     0.18200
H2389       H  0.67887860  0.49731623  0.36531612     0.18200
N2390       N  0.64325428  0.49829692  0.31721396    -0.88500
H2391       H  0.58928864  0.00191772  0.44753233     0.35600
H2392       H  0.59808748  0.03844789  0.43734394     0.40700
H2393       H  0.64680588  0.95262608  0.32193995     0.40300
H2394       H  0.65662977  0.98859305  0.31069745     0.35200
C2395       C  0.62545064  0.51727993  0.15234004    -0.26500
C2396       C  0.60019319  0.99822540  0.14662571    -0.14600
C2397       C  0.59430605  0.98765943  0.11649141     0.36000
C2398       C  0.61773580  0.98927067  0.09419648    -0.26000
C2399       C  0.64490848  0.50285518  0.10199998    -0.15200
C2400       C  0.64882595  0.51843926  0.13016437     0.37100
N2401       N  0.67626259  0.53579799  0.13600268    -0.89500
H2402       H  0.62855481  0.52919061  0.17397358     0.18200
H2403       H  0.61346879  0.98048002  0.07130381     0.18200
N2404       N  0.56489942  0.97489310  0.10874213    -0.88500
H2405       H  0.67553725  0.54557831  0.15795076     0.35600
H2406       H  0.67687072  0.55403090  0.12028894     0.40700
H2407       H  0.56202609  0.95468492  0.12150294     0.40300
H2408       H  0.56430732  0.96863158  0.08553005     0.35200
C2409       C  0.87167861  0.48373187  0.15382199    -0.26500
C2410       C  0.90008442  0.49760837  0.14738684    -0.14600
C2411       C  0.90733991  0.01564866  0.11672672     0.36000
C2412       C  0.88406132  0.01500462  0.09434255    -0.26000
C2413       C  0.85333639  0.49623013  0.10255615    -0.15200
C2414       C  0.84843837  0.48250670  0.13172761     0.37100
N2415       N  0.82015151  0.46682797  0.13871945    -0.89500
H2416       H  0.86774335  0.47317130  0.17612814     0.18200
H2417       H  0.88769367  0.02660043  0.07250047     0.18200
N2418       N  0.93559915  0.03172619  0.11063173    -0.88500
H2419       H  0.82020600  0.45830692  0.16125850     0.35600
H2420       H  0.81878419  0.44776488  0.12422310     0.40700
H2421       H  0.93585390  0.54484983  0.12497594     0.40300
H2422       H  0.93559120  0.04115772  0.08845401     0.35200
C2423       C  0.01410699  0.61766812  0.40686852    -0.26500
C2424       C  0.49916192  0.64654167  0.40121598    -0.14600
C2425       C  0.47972594  0.64861471  0.37543587     0.36000
C2426       C  0.48095903  0.62576765  0.35274057    -0.26000
C2427       C  0.99964733  0.59944263  0.35587979    -0.15200
C2428       C  0.01494924  0.59466560  0.38415282     0.37100
N2429       N  0.03178813  0.56683186  0.38949611    -0.89500
H2430       H  0.02631067  0.61421571  0.42826311     0.18200
H2431       H  0.46595129  0.62727728  0.33298955     0.18200
N2432       N  0.45843690  0.67361414  0.37270658    -0.88500
H2433       H  0.04138073  0.56678840  0.41150284     0.35600
H2434       H  0.05011227  0.56640631  0.37385420     0.40700
H2435       H  0.44267417  0.67168482  0.39086903     0.40300
H2436       H  0.44586164  0.67179199  0.35237696     0.35200
C2437       C  0.00647973  0.90614694  0.38461277    -0.26500
C2438       C  0.49678778  0.89831194  0.35416975    -0.14600
C2439       C  0.48374926  0.86888862  0.34968903     0.36000
C2440       C  0.48470228  0.84731789  0.37363701    -0.26000
C2441       C  0.49842385  0.85419397  0.40195656    -0.15200
C2442       C  0.00763764  0.88386822  0.40800441     0.37100
N2443       N  0.02307677  0.89067596  0.43631412    -0.89500
H2444       H  0.01711882  0.92829631  0.38841888     0.18200
H2445       H  0.47435228  0.82496546  0.37017602     0.18200
N2446       N  0.46921930  0.86099244  0.32112751    -0.88500
H2447       H  0.03081411  0.91340925  0.43651303     0.35600
H2448       H  0.04263176  0.87687508  0.43704207     0.40700
H2449       H  0.44976148  0.87478641  0.31895784     0.40300
H2450       H  0.46143211  0.83827036  0.32155776     0.35200
C2451       C  0.99635313  0.88284495  0.09276627    -0.26500
C2452       C  0.00643244  0.85301233  0.09981721    -0.14600
C2453       C  0.01720953  0.84690039  0.12981969     0.36000
C2454       C  0.51689588  0.87198697  0.15238241    -0.26000
C2455       C  0.50495836  0.90111972  0.14550352    -0.15200
C2456       C  0.49437441  0.90713988  0.11543719     0.37100
N2457       N  0.48124717  0.93625223  0.10765456    -0.89500
H2458       H  0.98845629  0.88828966  0.06980676     0.18200
H2459       H  0.52568576  0.86706969  0.17516309     0.18200
N2460       N  0.02944921  0.81743048  0.13764216    -0.88500
H2461       H  0.45867078  0.93253335  0.10055260     0.35600
H2462       H  0.49355605  0.94541512  0.08902693     0.40700
H2463       H  0.01671456  0.80852817  0.15609826     0.40300
H2464       H  0.05207443  0.82044646  0.14488945     0.35200
C2465       C  0.98349124  0.62690019  0.15101417    -0.26500
C2466       C  0.99580064  0.59783358  0.14485994    -0.14600
C2467       C  0.50512640  0.59246881  0.11599203     0.36000
C2468       C  0.50451742  0.61610075  0.09387923    -0.26000
C2469       C  0.99544734  0.64428282  0.09892367    -0.15200
C2470       C  0.98276518  0.64996600  0.12843474     0.37100
N2471       N  0.96871110  0.67897641  0.13537138    -0.89500
H2472       H  0.97388644  0.63161344  0.17357266     0.18200
H2473       H  0.50980593  0.61063497  0.07012360     0.18200
N2474       N  0.51247203  0.56169295  0.10666494    -0.88500
H2475       H  0.96083414  0.67947636  0.15815768     0.35600
H2476       H  0.94934767  0.68106561  0.12144437     0.40700
H2477       H  0.53381264  0.55622345  0.11603932     0.40300
H2478       H  0.51506279  0.56038487  0.08275303     0.35200
O2479       O  0.91419936  0.49897154  0.69940295    -0.75500
O2480       O  0.95232728  0.49988806  0.66328229    -0.54400
C2481       C  0.92397027  0.49972514  0.67135907     0.78200
O2482       O  0.99817317  0.58456506  0.80294417    -0.60100
O2483       O  0.99845864  0.54659134  0.83920423    -0.53100
C2484       C  0.99843263  0.57495892  0.83100790     0.70300
O2485       O  0.99476408  0.58462738  0.69901248    -0.74600
O2486       O  0.50095366  0.54747730  0.66279986    -0.55200
C2487       C  0.99652988  0.57487322  0.67109366     0.76300
O2488       O  0.91378760  0.49601097  0.80358038    -0.59800
O2489       O  0.95310696  0.99919911  0.83841173    -0.52900
C2490       C  0.92300637  0.49685594  0.83161079     0.72900
Zr2491     Zr  0.93451779  0.49777120  0.75152861     2.54700
O2492       O  0.89590928  0.53806943  0.75292400    -0.80400
O2493       O  0.90207333  0.95468129  0.75285619    -0.93800
Zr2494     Zr  0.99654603  0.56370663  0.75114866     2.64700
O2495       O  0.95356608  0.59939171  0.75332465    -0.98700
O2496       O  0.53889049  0.60605575  0.74927570    -0.80800
O2497       O  0.96511131  0.53126431  0.72120067    -0.84100
O2498       O  0.96530229  0.53087975  0.78151551    -2.18900
O2499       O  0.50247947  0.91467379  0.80203442    -0.67500
O2500       O  0.99919738  0.95197978  0.83795161    -0.52100
C2501       C  0.50137821  0.92406204  0.83004437     0.71200
O2502       O  0.58556315  0.00173070  0.69834244    -0.60400
O2503       O  0.54739126  0.50001575  0.66320851    -0.52400
C2504       C  0.57588221  0.00181359  0.67037187     0.73000
O2505       O  0.58648264  0.00423851  0.80248775    -0.71800
O2506       O  0.54906637  0.00248877  0.83913446    -0.50500
C2507       C  0.57743255  0.00368486  0.83073770     0.74400
O2508       O  0.50557848  0.91535919  0.69890682    -0.67200
O2509       O  0.50454101  0.95360293  0.66313712    -0.54400
C2510       C  0.50578220  0.92516689  0.67088977     0.72800
Zr2511     Zr  0.50361040  0.93665329  0.75070403     2.77500
O2512       O  0.54732817  0.90194948  0.75085572    -0.97900
O2513       O  0.96616350  0.89246416  0.74821878    -0.78700
Zr2514     Zr  0.56533715  0.00315294  0.75068648     2.70100
O2515       O  0.60479578  0.96372611  0.75140943    -0.80000
O2516       O  0.60447462  0.53876615  0.75142830    -0.99100
Zr2517     Zr  0.49999800  0.50035450  0.69214802     2.21500
Zr2518     Zr  0.00103352  0.99988345  0.80951392     2.11100
O2519       O  0.53503051  0.96921409  0.78082789    -2.47800
O2520       O  0.53489944  0.96963336  0.72085862    -0.79800
O2521       O  0.96915649  0.96652630  0.78028016    -0.72000
O2522       O  0.53307226  0.53289109  0.72105539    -2.32900
O2523       O  0.96869762  0.96583242  0.72053576    -2.29100
O2524       O  0.53336127  0.53343806  0.78050724    -0.73700
H2525       H  0.95246716  0.54294861  0.79497142     0.78300
H2526       H  0.54579243  0.54533073  0.70768889     0.79400
H2527       H  0.54797872  0.95699229  0.79396094     0.81600
H2528       H  0.95635880  0.95304887  0.70733005     0.79200
H2529       H  0.55778579  0.59635482  0.75720550     0.42200
H2530       H  0.62377608  0.52717852  0.74852302     0.41200
H2531       H  0.62439795  0.97522416  0.75077964     0.40900
H2532       H  0.53825871  0.88129010  0.74811385     0.38800
H2533       H  0.94587877  0.90228660  0.74577252     0.41900
H2534       H  0.90267506  0.94567991  0.73195551     0.36700
H2535       H  0.90220109  0.55263385  0.73650439     0.42800
H2536       H  0.94502476  0.59957161  0.73225035     0.39200
H2537       H  0.55825876  0.90616837  0.73122948     0.44200
H2538       H  0.88145031  0.96397527  0.75454146     0.42900
H2539       H  0.93771850  0.58891343  0.76595942     0.43000
H2540       H  0.60190219  0.55039221  0.73199353     0.43400
O2541       O  0.99944358  0.69782858  0.58813700    -0.75500
O2542       O  0.50055053  0.66216852  0.54859701    -0.54400
C2543       C  0.99907827  0.66998968  0.57835697     0.78200
O2544       O  0.91615266  0.80077632  0.50097573    -0.60100
O2545       O  0.95403547  0.83670178  0.50223646    -0.53100
C2546       C  0.92557342  0.82883257  0.50110769     0.70300
O2547       O  0.91617262  0.69727061  0.50689711    -0.74600
O2548       O  0.95389676  0.66128221  0.50351042    -0.55200
C2549       C  0.92559580  0.66927717  0.50586786     0.76300
O2550       O  0.00567763  0.80110926  0.58719234    -0.59800
O2551       O  0.00416397  0.83708613  0.54903421    -0.52900
C2552       C  0.00556740  0.82905913  0.57748909     0.72900
Zr2553     Zr  0.00443313  0.74920130  0.56650979     2.54700
O2554       O  0.96964940  0.75116023  0.61054102    -0.80400
O2555       O  0.54973731  0.74686361  0.59956742    -0.93800
Zr2556     Zr  0.93745001  0.74921243  0.50513867     2.64700
O2557       O  0.90299128  0.75102631  0.54946721    -0.98700
O2558       O  0.89429448  0.75026960  0.96561727    -0.80800
O2559       O  0.97045309  0.71949346  0.53623372    -0.84100
O2560       O  0.97033365  0.77907118  0.53643094    -2.18900
O2561       O  0.58736764  0.80127790  0.00349527    -0.67500
O2562       O  0.54999901  0.83712911  0.50259809    -0.52100
C2563       C  0.57789306  0.82925536  0.00437535     0.71200
O2564       O  0.50185814  0.69939393  0.91509280    -0.60400
O2565       O  0.49931984  0.66304728  0.95295206    -0.52400
C2566       C  0.50036228  0.67139548  0.92445241     0.73000
O2567       O  0.50009308  0.80271254  0.91563144    -0.71800
O2568       O  0.99849770  0.83741121  0.95260429    -0.50500
C2569       C  0.50055683  0.83062762  0.92529678     0.74400
O2570       O  0.58783899  0.69824426  0.49547378    -0.67200
O2571       O  0.54982417  0.66247426  0.49893974    -0.54400
C2572       C  0.57702274  0.67001771  0.00044778     0.72800
Zr2573     Zr  0.56647194  0.74963866  0.49795663     2.77500
O2574       O  0.60031418  0.75093068  0.95521368    -0.97900
O2575       O  0.60930755  0.74558978  0.53350274    -0.78700
Zr2576     Zr  0.50069871  0.75070686  0.93668860     2.73700
O2577       O  0.53909332  0.75152256  0.89570284    -0.80000
O2578       O  0.95319641  0.75036325  0.89988623    -0.99100
Zr2579     Zr  0.50178530  0.69097684  0.50107096     2.21500
Zr2580     Zr  0.00186844  0.80806869  0.50189525     2.11100
O2581       O  0.53407757  0.78025656  0.96762871    -2.47800
O2582       O  0.53324816  0.72002817  0.96767504    -0.79800
O2583       O  0.53659078  0.77945785  0.53248259    -0.72000
O2584       O  0.96508343  0.72002818  0.96831859    -2.32900
O2585       O  0.53613711  0.71970744  0.53236311    -2.29100
O2586       O  0.96595167  0.77980997  0.96900609    -0.73700
H2587       H  0.95830270  0.79238033  0.54944780     0.78300
H2588       H  0.95176976  0.70705195  0.95628954     0.79400
H2589       H  0.54665168  0.79360142  0.95496791     0.81600
H2590       H  0.54903440  0.70623442  0.54432970     0.79200
H2591       H  0.87636018  0.75861777  0.97687254     0.42200
H2592       H  0.94144428  0.76900851  0.90536249     0.41200
H2593       H  0.55284841  0.76884701  0.90084404     0.40900
H2594       H  0.62061738  0.74557172  0.96376799     0.38800
H2595       H  0.62765520  0.74330587  0.52015728     0.41900
H2596       H  0.54177280  0.75253172  0.62016454     0.36700
H2597       H  0.94898976  0.74849285  0.60159953     0.42800
H2598       H  0.90308236  0.77275094  0.55608326     0.39200
H2599       H  0.59440743  0.73282468  0.94286127     0.44200
H2600       H  0.56276799  0.76448105  0.59327980     0.42900
H2601       H  0.88232057  0.74782541  0.54072616     0.43000
H2602       H  0.96237370  0.75514477  0.87950639     0.43400
O2603       O  0.80355078  0.58477537  0.50557398    -0.75500
O2604       O  0.83892511  0.54638440  0.50301599    -0.54400
C2605       C  0.83139883  0.57487278  0.50473743     0.78200
O2606       O  0.69851134  0.00284098  0.58632384    -0.60100
O2607       O  0.66312980  0.50071585  0.54950374    -0.53100
C2608       C  0.67069255  0.50157192  0.57800920     0.70300
O2609       O  0.80189620  0.00137918  0.58661959    -0.74600
O2610       O  0.83799842  0.99824005  0.54869377    -0.55200
C2611       C  0.82948075  0.49984881  0.57904237     0.76300
O2612       O  0.69966786  0.58476174  0.49850289    -0.59800
O2613       O  0.66396984  0.54669167  0.50096974    -0.52900
C2614       C  0.67166965  0.57508091  0.49915890     0.72900
Zr2615     Zr  0.75165848  0.56370542  0.50096791     2.54700
O2616       O  0.74794725  0.60552797  0.53779181    -0.80400
O2617       O  0.75202627  0.60431836  0.96511175    -0.93800
Zr2618     Zr  0.75028288  0.00169792  0.56525117     2.64700
O2619       O  0.75121518  0.54188488  0.60453540    -0.98700
O2620       O  0.74892909  0.96386992  0.60662667    -0.80800
O2621       O  0.78074657  0.53254722  0.53486210    -0.84100
O2622       O  0.72142923  0.53291274  0.53453857    -2.18900
O2623       O  0.69819153  0.50126828  0.91717062    -0.67500
O2624       O  0.66212916  0.50008015  0.95520644    -0.52100
C2625       C  0.67057943  0.00236551  0.92651379     0.71200
O2626       O  0.80068185  0.91242118  0.49974228    -0.60400
O2627       O  0.83687470  0.95007563  0.50036802    -0.52400
C2628       C  0.82988257  0.92335752  0.00141910     0.73000
O2629       O  0.69759617  0.91539721  0.50328900    -0.71800
O2630       O  0.66210875  0.95360296  0.50294177    -0.50500
C2631       C  0.67120873  0.92418575  0.00470183     0.74400
O2632       O  0.80176093  0.49721874  0.91739974    -0.67200
O2633       O  0.83876092  0.99828252  0.95388146    -0.54400
C2634       C  0.83103600  0.99749235  0.92545289     0.72800
Zr2635     Zr  0.74984977  0.49918273  0.93843150     2.77500
O2636       O  0.74851359  0.95443539  0.90182473    -0.97900
O2637       O  0.75053157  0.53957233  0.89954226    -0.78700
Zr2638     Zr  0.74968208  0.93517122  0.50284872     2.70100
O2639       O  0.74925312  0.89529478  0.96520840    -0.80000
O2640       O  0.74972672  0.89807832  0.54492005    -0.99100
Zr2641     Zr  0.80914233  0.99856782  0.50120506     2.21500
Zr2642     Zr  0.69265885  0.49944530  0.50242418     2.11100
O2643       O  0.72085300  0.96649751  0.96980958    -2.47800
O2644       O  0.78051300  0.96630693  0.96951913    -0.79800
O2645       O  0.72031638  0.53201295  0.97018704    -0.72000
O2646       O  0.77954060  0.96711930  0.53500049    -2.32900
O2647       O  0.77965253  0.53172688  0.97024648    -2.29100
O2648       O  0.72021557  0.96803114  0.53489191    -0.73700
H2649       H  0.70811957  0.54579394  0.54667466     0.78300
H2650       H  0.79246124  0.95460141  0.54788503     0.79400
H2651       H  0.70741689  0.95373787  0.95773059     0.81600
H2652       H  0.79314387  0.54425267  0.95773980     0.79200
H2653       H  0.75771302  0.94508222  0.59737567     0.42200
H2654       H  0.73036038  0.90193529  0.55627798     0.41200
H2655       H  0.75345615  0.90595518  0.94545930     0.40900
H2656       H  0.72680398  0.94770216  0.90229729     0.38800
H2657       H  0.76009817  0.55737898  0.90984568     0.41900
H2658       H  0.77085516  0.60024810  0.95294896     0.36700
H2659       H  0.73980634  0.59585738  0.55681499     0.42800
H2660       H  0.73414648  0.55554280  0.59853639     0.39200
H2661       H  0.75137810  0.96346741  0.88106137     0.44200
H2662       H  0.75689172  0.62299116  0.97708482     0.42900
H2663       H  0.74424179  0.53221871  0.62402906     0.43000
H2664       H  0.74650500  0.87798313  0.53485331     0.43400
C2665       C  0.87118292  0.84492432  0.49298310    -0.26500
C2666       C  0.90154576  0.85334977  0.49987840    -0.14600
C2667       C  0.90663595  0.88388527  0.01412595     0.36000
C2668       C  0.88344946  0.90630155  0.01274990    -0.26000
C2669       C  0.85422754  0.89944672  0.00107986    -0.15200
C2670       C  0.84736820  0.86652291  0.49227936     0.37100
N2671       N  0.81701808  0.85630131  0.48502153    -0.89500
H2672       H  0.86559662  0.82120609  0.48805251     0.18200
H2673       H  0.88800894  0.92904411  0.02164688     0.18200
N2674       N  0.93570618  0.89118919  0.02773486    -0.88500
H2675       H  0.81052979  0.83964577  0.50120608     0.35600
H2676       H  0.81766218  0.84592635  0.46335105     0.40700
H2677       H  0.93766853  0.87789427  0.04771425     0.40300
H2678       H  0.93631177  0.91411117  0.03475452     0.35200
C2679       C  0.90649104  0.61585338  0.99703351    -0.26500
C2680       C  0.90204053  0.64460423  0.50703500    -0.14600
C2681       C  0.87455292  0.64811440  0.52405659     0.36000
C2682       C  0.85207662  0.62492675  0.52314646    -0.26000
C2683       C  0.85638908  0.59815346  0.50570761    -0.15200
C2684       C  0.88436130  0.59233730  0.99611534     0.37100
N2685       N  0.89244530  0.56276178  0.98391572    -0.89500
H2686       H  0.92941822  0.61115853  0.98857200     0.18200
H2687       H  0.83106005  0.62772278  0.53627916     0.18200
N2688       N  0.86963036  0.67512497  0.54236765    -0.88500
H2689       H  0.91573743  0.56198242  0.97810643     0.35600
H2690       H  0.88039182  0.55982124  0.96338736     0.40700
H2691       H  0.88604029  0.67519293  0.55981999     0.40300
H2692       H  0.84819127  0.67429329  0.55325953     0.35200
C2693       C  0.59470028  0.88311392  0.99451760    -0.26500
C2694       C  0.60131593  0.85393462  0.00658744    -0.14600
C2695       C  0.63038237  0.84869603  0.01985714     0.36000
C2696       C  0.65264568  0.87198740  0.01881306    -0.26000
C2697       C  0.64643132  0.90078690  0.00563227    -0.15200
C2698       C  0.61693794  0.90647947  0.99356467     0.37100
N2699       N  0.60739974  0.93662023  0.48015950    -0.89500
H2700       H  0.57111583  0.88758145  0.48456926     0.18200
H2701       H  0.67494748  0.86769372  0.02879443     0.18200
N2702       N  0.63708055  0.82005549  0.03492253    -0.88500
H2703       H  0.58693995  0.93618393  0.97257931     0.35600
H2704       H  0.62321191  0.93774837  0.95970940     0.40700
H2705       H  0.62250235  0.81821425  0.05405940     0.40300
H2706       H  0.66187132  0.81907962  0.53621332     0.35200
C2707       C  0.65405274  0.62779838  0.48601891    -0.26500
C2708       C  0.64680628  0.59847293  0.49750587    -0.14600
C2709       C  0.61626653  0.59250769  0.50741774     0.36000
C2710       C  0.59438956  0.61619836  0.50650718    -0.26000
C2711       C  0.60059757  0.64538035  0.00044953    -0.15200
C2712       C  0.62977352  0.64998155  0.98684138     0.37100
N2713       N  0.63718241  0.67815389  0.97135851    -0.89500
H2714       H  0.67701817  0.63274785  0.47766134     0.18200
H2715       H  0.57134415  0.61162613  0.51481501     0.18200
N2716       N  0.60752810  0.56282765  0.51916373    -0.88500
H2717       H  0.64833631  0.67662891  0.44916502     0.35600
H2718       H  0.65878317  0.68911915  0.48444485     0.40700
H2719       H  0.60692087  0.54777674  0.50048680     0.40300
H2720       H  0.58767687  0.56622438  0.04193907     0.35200
C2721       C  0.84828949  0.51035103  0.87504902    -0.26500
C2722       C  0.85580938  0.99793622  0.90195959    -0.14600
C2723       C  0.88484211  0.98429448  0.90683707     0.36000
C2724       C  0.90697287  0.98523090  0.88311108    -0.26000
C2725       C  0.89911563  0.49701476  0.85607201    -0.15200
C2726       C  0.87012056  0.51095166  0.85152805     0.37100
N2727       N  0.86229917  0.52695153  0.82378758    -0.89500
H2728       H  0.82641993  0.52141486  0.87105274     0.18200
H2729       H  0.92901506  0.97439593  0.88669223     0.18200
N2730       N  0.89150439  0.96863116  0.93523367    -0.88500
H2731       H  0.86115224  0.51136337  0.80561615     0.35600
H2732       H  0.87904556  0.54358560  0.81918913     0.40700
H2733       H  0.89412097  0.98530235  0.95227001     0.40300
H2734       H  0.91261974  0.95738740  0.93375418     0.35200
C2735       C  0.59287401  0.00828608  0.88612788    -0.26500
C2736       C  0.60145255  0.00419592  0.85511607    -0.14600
C2737       C  0.63300527  0.00072830  0.84802108     0.36000
C2738       C  0.65462466  0.99993872  0.87166827    -0.26000
C2739       C  0.64613438  0.00376256  0.90266267    -0.15200
C2740       C  0.61481246  0.00884850  0.90973261     0.37100
N2741       N  0.60505155  0.01530096  0.94059469    -0.89500
H2742       H  0.56898662  0.01158333  0.89222411     0.18200
H2743       H  0.67753124  0.49100488  0.86577047     0.18200
N2744       N  0.64197258  0.48929676  0.81743784    -0.88500
H2745       H  0.58862295  0.99894174  0.94703437     0.35600
H2746       H  0.59448424  0.03683059  0.94065613     0.40700
H2747       H  0.65545042  0.97730428  0.81467717     0.40300
H2748       H  0.65895393  0.01595950  0.81239103     0.35200
C2749       C  0.62635403  0.51775026  0.65137336    -0.26500
C2750       C  0.59930331  0.00258853  0.64564394    -0.14600
C2751       C  0.59301068  0.99348241  0.61508401     0.36000
C2752       C  0.61637241  0.99531993  0.59274735    -0.26000
C2753       C  0.64576098  0.50303365  0.60106807    -0.15200
C2754       C  0.64940896  0.51938740  0.62881297     0.37100
N2755       N  0.67614624  0.53811777  0.63369957    -0.89500
H2756       H  0.62940728  0.52988492  0.67288699     0.18200
H2757       H  0.61162250  0.98782508  0.56949355     0.18200
N2758       N  0.56327947  0.98182391  0.60688693    -0.88500
H2759       H  0.67516004  0.54870740  0.65525280     0.35600
H2760       H  0.67582971  0.55576327  0.61731364     0.40700
H2761       H  0.56010273  0.96098871  0.61851155     0.40300
H2762       H  0.56235999  0.97686143  0.58337096     0.35200
C2763       C  0.87243040  0.48529995  0.65311008    -0.26500
C2764       C  0.90055787  0.49981452  0.64695617    -0.14600
C2765       C  0.90783719  0.00884913  0.61508542     0.36000
C2766       C  0.88425163  0.00825111  0.59308347    -0.26000
C2767       C  0.85380593  0.49918417  0.60245225    -0.15200
C2768       C  0.84905381  0.48470816  0.63123801     0.37100
N2769       N  0.82076522  0.46895753  0.63803344    -0.89500
H2770       H  0.86876962  0.47390571  0.67505187     0.18200
H2771       H  0.88912034  0.01601122  0.56982615     0.18200
N2772       N  0.93792645  0.01952417  0.60642567    -0.88500
H2773       H  0.82087451  0.46001347  0.66040704     0.35600
H2774       H  0.81933545  0.45018107  0.62318246     0.40700
H2775       H  0.93538807  0.54847128  0.62613628     0.40300
H2776       H  0.93886313  0.02488212  0.58295090     0.35200
C2777       C  0.01093393  0.61749073  0.90627138    -0.26500
C2778       C  0.50014718  0.64721678  0.90047436    -0.14600
C2779       C  0.48761717  0.65261480  0.87095150     0.36000
C2780       C  0.48917382  0.62954395  0.84854534    -0.26000
C2781       C  0.99821091  0.59864262  0.85528931    -0.15200
C2782       C  0.01175048  0.59384557  0.88437927     0.37100
N2783       N  0.02698950  0.56544193  0.89132543    -0.89500
H2784       H  0.02166555  0.61393628  0.92843663     0.18200
H2785       H  0.47906781  0.63365894  0.82617588     0.18200
N2786       N  0.47297863  0.68130984  0.86384213    -0.88500
H2787       H  0.03552891  0.56561766  0.91377071     0.35600
H2788       H  0.04600824  0.56381017  0.87663904     0.40700
H2789       H  0.45337277  0.68295692  0.87772142     0.40300
H2790       H  0.46545531  0.68168604  0.84103194     0.35200
C2791       C  0.01116381  0.90505902  0.88187002    -0.26500
C2792       C  0.50011063  0.90031420  0.85453481    -0.14600
C2793       C  0.48728308  0.87094567  0.84917797     0.36000
C2794       C  0.48783385  0.84878635  0.87264383    -0.26000
C2795       C  0.50024785  0.85528473  0.90164511    -0.15200
C2796       C  0.01216498  0.88248552  0.90495700     0.37100
N2797       N  0.03022658  0.88740724  0.93209603    -0.89500
H2798       H  0.02416616  0.92607446  0.88473081     0.18200
H2799       H  0.47800586  0.82635324  0.86834237     0.18200
N2800       N  0.47318955  0.86378734  0.82019979    -0.88500
H2801       H  0.04039236  0.90916706  0.93163750     0.35600
H2802       H  0.04815213  0.87151092  0.93177480     0.40700
H2803       H  0.45394201  0.87787051  0.81794647     0.40300
H2804       H  0.46510651  0.84117451  0.82005767     0.35200
C2805       C  0.99260815  0.88197802  0.59439579    -0.26500
C2806       C  0.00652440  0.85367770  0.60085798    -0.14600
C2807       C  0.02051027  0.84910550  0.62975310     0.36000
C2808       C  0.51785236  0.87219062  0.65364181    -0.26000
C2809       C  0.50751534  0.90178079  0.64613634    -0.15200
C2810       C  0.49853443  0.90796326  0.61551053     0.37100
N2811       N  0.48770467  0.93774831  0.60666222    -0.89500
H2812       H  0.98213846  0.88566643  0.57218690     0.18200
H2813       H  0.52551704  0.86707347  0.67678662     0.18200
N2814       N  0.03667828  0.82112238  0.63635273    -0.88500
H2815       H  0.46532864  0.93543056  0.59844029     0.35600
H2816       H  0.50149843  0.94580433  0.58857004     0.40700
H2817       H  0.04543932  0.82139487  0.65870777     0.40300
H2818       H  0.05558051  0.82009782  0.62145301     0.35200
C2819       C  0.97878010  0.62478937  0.65053306    -0.26500
C2820       C  0.99629402  0.59815029  0.64632145    -0.14600
C2821       C  0.51603237  0.59499968  0.61752370     0.36000
C2822       C  0.51461801  0.61810196  0.59497255    -0.26000
C2823       C  0.99700581  0.64524914  0.60160267    -0.15200
C2824       C  0.97886885  0.64836444  0.62846880     0.37100
N2825       N  0.96034164  0.67523471  0.63310247    -0.89500
H2826       H  0.96484796  0.62717914  0.67114148     0.18200
H2827       H  0.52720869  0.61531336  0.57356882     0.18200
N2828       N  0.53404725  0.56790479  0.61215333    -0.88500
H2829       H  0.94842458  0.67385331  0.65403841     0.35600
H2830       H  0.94378961  0.67563688  0.61579026     0.40700
H2831       H  0.55213760  0.56802455  0.62784813     0.40300
H2832       H  0.54399869  0.56850763  0.59018121     0.35200
loop_ 
_geom_bond_atom_site_label_1 
_geom_bond_atom_site_label_2 
_geom_bond_distance 
_geom_bond_site_symmetry_2 
_ccdc_geom_bond_type 
O1          Zr13   2.432   1_545  S
O1            C3   1.287       .  A
O2        Zr1455   2.423       .  S
O2            C3   1.286   1_565  A
C3          C286   1.486       .  S
O4          Zr16   2.443       .  S
O4            C6   1.289       .  A
O5         Zr748   2.433   1_545  S
O5            C6   1.288       .  A
C6          C303   1.491       .  S
O7          Zr16   2.449       .  S
O7            C9   1.290       .  A
O8          Zr39   2.412   1_545  S
O8         C1425   1.284   1_455  A
C9         O1424   1.282       .  A
C9          C342   1.481       .  S
O10         Zr13   2.421       .  S
O10          C12   1.283       .  A
O11         Zr40   2.430       .  S
O11         C720   1.288       .  A
C12         O719   1.288       .  A
C12         C247   1.488       .  S
Zr13         O14   2.434   1_565  S
Zr13        O723   2.435       .  S
Zr13         O19   2.363   1_565  S
Zr13         O20   2.370   1_565  S
Zr13        O751   2.370       .  S
Zr13        O753   2.364       .  S
O14          H57   0.990       .  S
O15        Zr721   2.434       .  S
O15          H56   0.991       .  S
O15          H60   0.989       .  S
Zr16         O17   2.435       .  S
Zr16       O1434   2.436       .  S
Zr16         O20   2.366       .  S
Zr16         O19   2.369       .  S
Zr16       O1460   2.372       .  S
Zr16       O1462   2.379       .  S
O17          H58   0.991       .  S
O17          H61   0.990       .  S
O18       Zr1432   2.433   1_455  S
O18          H51   0.990       .  S
O19       Zr1455   2.374   1_545  S
O20        Zr748   2.384   1_545  S
O20          H47   0.965       .  S
O21         Zr33   2.434       .  S
O21          C23   1.287   1_455  A
O22         Zr40   2.413       .  S
O22        C1439   1.285       .  A
C23        O1438   1.285       .  A
C23         C314   1.477       .  S
O24         Zr36   2.445       .  S
O24          C26   1.290       .  A
O25         Zr39   2.404       .  S
O25         C734   1.282       .  A
C26         O733   1.283       .  A
C26         C272   1.484       .  S
O27         Zr36   2.442       .  S
O27          C29   1.288       .  A
O28       Zr1456   2.440       .  S
O28          C29   1.289       .  A
C29         C258   1.501       .  S
O30         Zr33   2.440       .  S
O30          C32   1.289       .  A
O31        Zr747   2.423   1_455  S
O31          C32   1.285       .  A
C32         C331   1.492       .  S
Zr33         O34   2.435       .  S
Zr33       O1451   2.434   1_455  S
Zr33         O41   2.369       .  S
Zr33         O42   2.367       .  S
Zr33       O1461   2.371   1_455  S
Zr33       O1459   2.371   1_455  S
O34          H54   0.990       .  S
O34          H59   0.990       .  S
O35       Zr1449   2.431       .  S
O35          H55   0.990       .  S
Zr36         O37   2.433       .  S
Zr36        O746   2.433       .  S
Zr36         O42   2.370       .  S
Zr36         O41   2.372       .  S
Zr36        O754   2.371       .  S
Zr36        O752   2.367       .  S
O37          H53   0.990       .  S
O38        Zr744   2.435   1_545  S
O38          H52   0.990       .  S
O38          H62   0.990       .  S
Zr39       O1418   2.414   1_455  S
Zr39        O739   2.411       .  S
Zr39         O44   2.381   1_565  S
Zr39       O1435   2.377   1_465  S
Zr39        O750   2.378       .  S
Zr39       O2169   2.382   1_455  S
Zr40        O713   2.424       .  S
Zr40       O1444   2.444       .  S
Zr40         O43   2.393       .  S
Zr40        O728   2.385       .  S
Zr40       O1457   2.385       .  S
Zr40       O2170   2.378       .  S
O41       Zr1456   2.384       .  S
O41          H49   0.966       .  S
O42        Zr747   2.379   1_455  S
O43        Zr721   2.374       .  S
O43       Zr1449   2.375       .  S
O44       Zr1432   2.368   1_455  S
O44        Zr744   2.367   1_545  S
O44          H48   0.965       .  S
O45        Zr721   2.363       .  S
O45       Zr1449   2.371       .  S
O45       Zr2163   2.380       .  S
O45          H50   0.965       .  S
O46       Zr1432   2.375   1_455  S
O46        Zr744   2.374   1_545  S
O46       Zr2164   2.383   1_545  S
O63         Zr75   2.430       .  S
O63          C65   1.286       .  A
O64        Zr101   2.420       .  S
O64        C1481   1.286       .  A
C65        O1480   1.288       .  A
C65         C345   1.482       .  S
O66         Zr78   2.442       .  S
O66          C68   1.288       .  A
O67        Zr102   2.418       .  S
O67          C68   1.285       .  A
C68         C188   1.488       .  S
O69         Zr78   2.428       .  S
O69          C71   1.285       .  A
O70       Zr1517   2.431       .  S
O70          C71   1.289       .  A
C71         C202   1.489       .  S
O72         Zr75   2.440       .  S
O72          C74   1.288       .  A
O73        Zr102   2.419       .  S
O73          C74   1.286       .  A
C74         C328   1.492       .  S
Zr75         O76   2.437       .  S
Zr75       O1493   2.439       .  S
Zr75         O81   2.373       .  S
Zr75         O82   2.371       .  S
Zr75       O1521   2.363       .  S
Zr75       O1523   2.373       .  S
O76         H119   0.990       .  S
O77       Zr1491   2.436       .  S
O77         H118   0.990       .  S
O77         H122   0.990       .  S
Zr78         O79   2.438       .  S
Zr78        O434   2.437   1_554  S
Zr78         O82   2.369       .  S
Zr78         O81   2.367       .  S
Zr78        O460   2.376   1_554  S
Zr78        O462   2.368   1_554  S
O79         H120   0.990       .  S
O79         H123   0.990       .  S
O80        Zr432   2.434       .  S
O80         H113   0.990       .  S
O81       Zr1517   2.385       .  S
O82        Zr102   2.382       .  S
O82         H109   0.966       .  S
O83        Zr449   2.439       .  S
O83          C85   1.288       .  A
O84       Zr1518   2.419       .  S
O84         C439   1.286       .  A
C85         O438   1.287       .  A
C85         C216   1.489       .  S
O86         Zr98   2.445       .  S
O86          C88   1.289       .  A
O87        Zr455   2.427       .  S
O87          C88   1.288       .  A
C88         C300   1.489       .  S
O89         Zr98   2.442       .  S
O89          C91   1.289       .  A
O90        Zr456   2.414       .  S
O90        C1507   1.285       .  A
C91        O1506   1.284       .  A
C91         C317   1.481       .  S
O92         Zr95   2.450       .  S
O92         C448   1.289       .  A
O93        Zr101   2.432   1_456  S
O93         C448   1.288       .  A
C94         O446   1.286       .  A
C94         O447   1.288       .  A
C94         C233   1.487       .  S
Zr95        O437   2.440   1_556  S
Zr95         O97   2.435   1_556  S
Zr95        O450   2.436       .  S
Zr95        O107   2.372   1_556  S
Zr95        O105   2.372   1_556  S
Zr95        O457   2.373       .  S
Zr95        O458   2.367       .  S
O96        Zr449   2.436       .  S
O96         H116   0.990       .  S
O96         H121   0.990       .  S
O97         H117   0.990       .  S
Zr98         O99   2.433   1_655  S
Zr98       O1516   2.437       .  S
Zr98        O104   2.374   1_655  S
Zr98        O103   2.371   1_655  S
Zr98       O1524   2.371       .  S
Zr98       O1522   2.370       .  S
O99         H115   0.990       .  S
O100      Zr1514   2.435       .  S
O100        H114   0.990       .  S
O100        H124   0.990       .  S
Zr101      O1486   2.419       .  S
Zr101       O441   2.422   1_554  S
Zr101       O107   2.386   1_655  S
Zr101      O1497   2.385       .  S
Zr101       O458   2.379   1_654  S
Zr101      O1876   2.387   1_554  S
Zr102      O1500   2.418       .  S
Zr102       O444   2.419   1_554  S
Zr102      O1873   2.383   1_554  S
Zr102      O1521   2.378       .  S
Zr102       O462   2.378   1_554  S
O103       Zr449   2.369       .  S
O103      Zr1872   2.385       .  S
O103        H111   0.967       .  S
O104       Zr449   2.371       .  S
O104       Zr455   2.381   1_455  S
O105      Zr1491   2.365       .  S
O105      Zr1518   2.382       .  S
O106       Zr432   2.374       .  S
O106      Zr1514   2.372       .  S
O106      Zr1871   2.384       .  S
O106        H110   0.967       .  S
O107      Zr1491   2.372       .  S
O107        H112   0.966       .  S
O108       Zr432   2.370       .  S
O108      Zr1514   2.373       .  S
O108       Zr456   2.379       .  S
O125       Zr137   2.444   1_554  S
O125        C127   1.290       .  A
O126       Zr871   2.415   1_545  S
O126        C127   1.285       .  A
C127        C205   1.489       .  S
O128       Zr140   2.440       .  S
O128        C838   1.288       .  A
O129       Zr164   2.412   1_545  S
O129        C130   1.284       .  A
C130        O836   1.288       .  A
C130        C275   1.479       .  S
O131       Zr140   2.445       .  S
O131        C841   1.288       .  A
O132       Zr163   2.431       .  S
O132        C841   1.288       .  A
C133        O839   1.288       .  A
C133        O840   1.287       .  A
C133        C289   1.492   1_545  S
O134       Zr137   2.464       .  S
O134        C136   1.293       .  A
O135       Zr164   2.408   1_546  S
O135        C136   1.282       .  A
C136        C230   1.493       .  S
Zr137       O138   2.437   1_556  S
Zr137       O493   2.434       .  S
Zr137       O143   2.382   1_556  S
Zr137       O144   2.366   1_556  S
Zr137       O521   2.368       .  S
Zr137       O523   2.374       .  S
O138        H181   0.990       .  S
O139       Zr491   2.433       .  S
O139        H180   0.990       .  S
O139        H184   0.990       .  S
Zr140       O142   2.432       .  S
Zr140       O849   2.435       .  S
Zr140       O168   2.369       .  S
Zr140       O170   2.376       .  S
Zr140       O852   2.372       .  S
Zr140       O851   2.367       .  S
O141       Zr848   2.434       .  S
O141        H182   0.990       .  S
O141        H185   0.990       .  S
O142        H175   0.990       .  S
O143       Zr848   2.364       .  S
O143       Zr871   2.382   1_545  S
O144       Zr164   2.386   1_545  S
O144       Zr848   2.373       .  S
O144        H171   0.965       .  S
O145       Zr157   2.447       .  S
O145        C855   1.290       .  A
O146       Zr518   2.423       .  S
O146        C855   1.286       .  A
C147        O853   1.290       .  A
C147        O854   1.287       .  A
C147        C261   1.499       .  S
O148       Zr160   2.430   1_556  S
O148        C504   1.286       .  A
O149       Zr163   2.426   1_556  S
O149        C504   1.287       .  A
C150        O502   1.287       .  A
C150        O503   1.289       .  A
C150        C191   1.495       .  S
O151       Zr160   2.440       .  S
O151        C507   1.289       .  A
O152       Zr872   2.423       .  S
O152        C507   1.286       .  A
C153        O505   1.287       .  A
C153        O506   1.286       .  A
C153        C219   1.487       .  S
O154       Zr157   2.432   1_565  S
O154        C864   1.288   1_565  A
O155       Zr517   2.403       .  S
O155        C156   1.282       .  A
C156        O862   1.290       .  A
C156        C244   1.476       .  S
Zr157       O159   2.435       .  S
Zr157       O866   2.436   1_545  S
Zr157       O169   2.373       .  S
Zr157       O167   2.368       .  S
Zr157       O873   2.367   1_545  S
Zr157       O874   2.373   1_545  S
O158       Zr865   2.435       .  S
O158        H178   0.990       .  S
O158        H183   0.990       .  S
O159        H179   0.990       .  S
Zr160       O162   2.436       .  S
Zr160       O515   2.435   1_554  S
Zr160       O170   2.374       .  S
Zr160       O168   2.369       .  S
Zr160       O520   2.370   1_554  S
Zr160       O519   2.366   1_554  S
O161       Zr514   2.434       .  S
O161        H177   0.990       .  S
O162        H176   0.990       .  S
O162        H186   0.990       .  S
Zr163       O834   2.423       .  S
Zr163       O509   2.405   1_554  S
Zr163       O168   2.377       .  S
Zr163       O851   2.380       .  S
Zr163       O520   2.382   1_554  S
Zr163      O1231   2.391   1_554  S
Zr164       O500   2.423   1_554  S
Zr164       O860   2.416       .  S
Zr164      O1227   2.381   1_554  S
Zr164       O521   2.381   1_564  S
Zr164       O878   2.383       .  S
O165       Zr865   2.370       .  S
O165       Zr514   2.370       .  S
O165      Zr1226   2.379       .  S
O165        H173   0.965       .  S
O166       Zr865   2.373       .  S
O166       Zr514   2.369       .  S
O166       Zr517   2.380       .  S
O167       Zr491   2.369       .  S
O167       Zr518   2.377       .  S
O168        H172   0.965       .  S
O169       Zr491   2.370       .  S
O169      Zr1225   2.389       .  S
O169        H174   0.964       .  S
O170       Zr872   2.379       .  S
C187        C188   1.405   1_556  A
C187        C192   1.400       .  A
C187        H194   1.084       .  S
C188        C543   1.416       .  A
C189        C190   1.409       .  A
C189        C542   1.418       .  A
C189        N196   1.438       .  S
C190        C191   1.406       .  A
C190        H195   1.083       .  S
C191        C546   1.416       .  A
C192        C545   1.413       .  A
C192        N193   1.433       .  S
N193        H197   1.046       .  S
N193        H198   1.046       .  S
N196        H199   1.046       .  S
N196        H200   1.046       .  S
C201        C206   1.408       .  A
C201        C556   1.405       .  A
C201        H208   1.084       .  S
C202        C203   1.418       .  A
C202        C555   1.404   1_554  A
C203        C204   1.403       .  A
C203        N210   1.439       .  S
C204        C205   1.404       .  A
C204        H209   1.084       .  S
C205        C560   1.418   1_554  A
C206        C559   1.415       .  A
C206        N207   1.438       .  S
N207        H211   1.046       .  S
N207        H212   1.046       .  S
N210        H213   1.046       .  S
N210        H214   1.045       .  S
C215        C216   1.406       .  A
C215        C220   1.407       .  A
C215        H576   1.082       .  S
C216        C217   1.415       .  A
C217        C218   1.402       .  A
C217        N224   1.438       .  S
C218        C219   1.405       .  A
C218        H223   1.083       .  S
C219        C220   1.415       .  A
C220        N575   1.438       .  S
N221        C574   1.438       .  S
N221        H579   1.046       .  S
N221        H580   1.046       .  S
H222        C569   1.082       .  S
N224        H227   1.046       .  S
N224        H582   1.046       .  S
H225        N575   1.046       .  S
H226        N575   1.046       .  S
H228        N578   1.046       .  S
C229        C230   1.404       .  A
C229        C588   1.402       .  A
C229        H236   1.084       .  S
C230        C231   1.421   1_556  A
C231        C232   1.412       .  A
C231        N238   1.439       .  S
C232        C587   1.407   1_554  A
C232        H237   1.084       .  S
C233        C234   1.413       .  A
C233        C586   1.405       .  A
C234        C583   1.399       .  A
C234        N235   1.433       .  S
N235        H593   1.045       .  S
N235        H594   1.046       .  S
N238        H241   1.045       .  S
N238        H596   1.046       .  S
H239        N589   1.046       .  S
H240        N589   1.046       .  S
H242        N592   1.046       .  S
C243        C248   1.389       .  A
C243        C952   1.402       .  A
C243        H250   1.084       .  S
C244        C245   1.415       .  A
C244        C951   1.400       .  A
C245        C246   1.408       .  A
C245        N252   1.439       .  S
C246        C955   1.405       .  A
C246        H251   1.084       .  S
C247        C248   1.421   1_565  A
C247        C954   1.407       .  A
C248        N249   1.433       .  S
N249        H253   1.045   1_545  S
N249        H254   1.045       .  S
N252        H255   1.045       .  S
N252        H256   1.045       .  S
C257        C258   1.409       .  A
C257        C262   1.410       .  A
C257        H264   1.083       .  S
C258        C259   1.417       .  A
C259        C260   1.403       .  A
C259        N974   1.433       .  S
C260        C261   1.407       .  A
C260        H973   1.084       .  S
C261        C262   1.416       .  A
C262        N263   1.432       .  S
N263        H267   1.045       .  S
N263        H268   1.046       .  S
H265        C968   1.084       .  S
N266        C967   1.434       .  S
N266        H977   1.046       .  S
N266        H978   1.046       .  S
H269        N974   1.046       .  S
H270        N974   1.046       .  S
C271        C276   1.399       .  A
C271        C980   1.403   1_545  A
C271        H278   1.084       .  S
C272        C273   1.416       .  A
C272        C979   1.403       .  A
C273        C274   1.408       .  A
C273        N280   1.438       .  S
C274        C983   1.406       .  A
C274        H279   1.084       .  S
C275        C276   1.412       .  A
C275        C982   1.406   1_545  A
C276        N277   1.438       .  S
N277        H281   1.045       .  S
N277        H282   1.046       .  S
N280        H283   1.046       .  S
N280        H284   1.046       .  S
C285        C286   1.404   1_565  A
C285        C290   1.402       .  A
C285        H292   1.084       .  S
C286        C995   1.414       .  A
C287        C288   1.409       .  A
C287        C994   1.418       .  A
C287        N294   1.438       .  S
C288        C997   1.407       .  A
C288        H293   1.083       .  S
C289        C290   1.416       .  A
C289        C996   1.409   1_565  A
C290        N291   1.439       .  S
N291        H295   1.046       .  S
N291        H296   1.046       .  S
N294        H298   1.046       .  S
N294       H1005   1.046       .  S
H297       N1002   1.046       .  S
C299        C304   1.409       .  A
C299       C1716   1.407       .  A
C299        H306   1.083       .  S
C300        C301   1.415       .  A
C300       C1715   1.407   1_655  A
C301        C302   1.406       .  A
C301        N308   1.438       .  S
C302       C1719   1.406       .  A
C302        H307   1.084       .  S
C303        C304   1.414       .  A
C303       C1718   1.406       .  A
C304        N305   1.437       .  S
N305        H309   1.046       .  S
N305        H310   1.045       .  S
N308        H311   1.046       .  S
N308        H312   1.046       .  S
C313        C318   1.403       .  A
C313       C1730   1.403       .  A
C313        H320   1.084       .  S
C314        C315   1.412       .  A
C314       C1729   1.404   1_655  A
C315        C316   1.400       .  A
C315        N322   1.438       .  S
C316        C317   1.403       .  A
C316        H321   1.084       .  S
C317       C1734   1.415   1_655  A
C318       C1733   1.414       .  A
C318        N319   1.437       .  S
N319        H323   1.046       .  S
N319        H324   1.045       .  S
N322        H325   1.046       .  S
N322        H326   1.046       .  S
C327        C328   1.408       .  A
C327       C1748   1.404       .  A
C327        H334   1.083       .  S
C328        C329   1.415       .  A
C329       C1746   1.401       .  A
C329        N336   1.433       .  S
C330        C331   1.406       .  A
C330       C1745   1.405       .  A
C330        H335   1.083       .  S
C331        C332   1.417   1_455  A
C332       C1743   1.407       .  A
C332        N333   1.438       .  S
N333        H337   1.046       .  S
N333        H338   1.045   1_655  S
N336        H339   1.046       .  S
N336        H340   1.046       .  S
C341        C342   1.402       .  A
C341        C346   1.402       .  A
C341        H348   1.084       .  S
C342       C1759   1.415       .  A
C343        C344   1.406       .  A
C343       C1758   1.415   1_455  A
C343        N350   1.439       .  S
C344       C1761   1.406   1_455  A
C344        H349   1.084       .  S
C345        C346   1.415       .  A
C345       C1760   1.404       .  A
C346        N347   1.438       .  S
N347        H351   1.046       .  S
N347        H352   1.045       .  S
N350        H353   1.046       .  S
N350        H354   1.046       .  S
O355       Zr367   2.445       .  S
O355        C357   1.290       .  A
O356      Zr1809   2.418   1_565  S
O356        C357   1.285       .  A
C357        C640   1.493       .  S
O358       Zr370   2.437       .  S
O358        C360   1.288       .  A
O359      Zr1102   2.428       .  S
O359        C360   1.287       .  A
C360        C657   1.486       .  S
O361       Zr370   2.438       .  S
O361        C363   1.288       .  A
O362       Zr393   2.409   1_645  S
O362       C1779   1.283       .  A
C363       O1778   1.284       .  A
C363        C696   1.472       .  S
O364       Zr367   2.423       .  S
O364        C366   1.284       .  A
O365       Zr394   2.411       .  S
O365       C1074   1.285       .  A
C366       O1073   1.287   1_565  A
C366        C601   1.483       .  S
Zr367       O368   2.435   1_565  S
Zr367      O1077   2.431       .  S
Zr367       O373   2.363   1_565  S
Zr367       O374   2.370   1_565  S
Zr367      O1105   2.372       .  S
Zr367      O1107   2.367       .  S
O368        H411   0.989       .  S
O369      Zr1075   2.434       .  S
O369        H410   0.990       .  S
O369        H414   0.990       .  S
Zr370       O371   2.435       .  S
Zr370      O1788   2.433       .  S
Zr370       O374   2.365       .  S
Zr370       O373   2.371       .  S
Zr370      O1814   2.369       .  S
Zr370      O1816   2.374       .  S
O371        H412   0.990       .  S
O371        H415   0.990       .  S
O372      Zr1786   2.438       .  S
O372        H405   0.990       .  S
O373      Zr1809   2.375       .  S
O374      Zr1102   2.386       .  S
O374        H401   0.965       .  S
O375       Zr387   2.437   1_655  S
O375        C377   1.288       .  A
O376       Zr394   2.427       .  S
O376       C1793   1.288       .  A
C377       O1792   1.285       .  A
C377        C668   1.481       .  S
O378       Zr390   2.429       .  S
O378        C380   1.287       .  A
O379       Zr393   2.412       .  S
O379       C1088   1.285   1_565  A
C380       O1087   1.285       .  A
C380        C626   1.480       .  S
O381       Zr390   2.427       .  S
O381        C383   1.285       .  A
O382      Zr1810   2.449   1_455  S
O382        C383   1.291       .  A
C383        C612   1.494       .  S
O384       Zr387   2.446       .  S
O384        C386   1.291       .  A
O385      Zr1101   2.413   1_455  S
O385        C386   1.283       .  A
C386        C685   1.493       .  S
Zr387       O388   2.434       .  S
Zr387      O1805   2.435   1_455  S
Zr387       O395   2.370       .  S
Zr387       O396   2.369       .  S
Zr387      O1815   2.366   1_455  S
Zr387      O1813   2.367   1_455  S
O388        H408   0.990       .  S
O388        H413   0.990       .  S
O389      Zr1803   2.435       .  S
O389        H409   0.990       .  S
Zr390       O391   2.433       .  S
Zr390      O1100   2.434       .  S
Zr390       O396   2.371       .  S
Zr390       O395   2.371       .  S
Zr390      O1108   2.368       .  S
Zr390      O1106   2.366       .  S
O391        H407   0.990       .  S
O392      Zr1098   2.437       .  S
O392        H406   0.990       .  S
O392        H416   0.990       .  S
Zr393      O1772   2.421   1_455  S
Zr393      O1093   2.410       .  S
Zr393      O1789   2.377   1_465  S
Zr393      O1104   2.379       .  S
Zr393       O398   2.384   1_565  S
Zr393      O2523   2.380   1_455  S
Zr394      O1067   2.422       .  S
Zr394      O1798   2.435       .  S
Zr394      O1082   2.390       .  S
Zr394      O1811   2.381       .  S
Zr394       O397   2.383       .  S
Zr394      O2524   2.379       .  S
O395      Zr1810   2.379   1_455  S
O395        H403   0.966       .  S
O396      Zr1101   2.375   1_455  S
O397      Zr1075   2.368       .  S
O397      Zr1803   2.366       .  S
O398      Zr1786   2.365       .  S
O398      Zr1098   2.370       .  S
O398        H402   0.965       .  S
O399      Zr1075   2.363       .  S
O399      Zr1803   2.370       .  S
O399      Zr2517   2.378       .  S
O399        H404   0.966       .  S
O400      Zr1786   2.372       .  S
O400      Zr1098   2.370       .  S
O400      Zr2518   2.382   1_545  S
O417       Zr429   2.436       .  S
O417        C419   1.287       .  A
O418       Zr455   2.425       .  S
O418       C1835   1.287       .  A
C419       O1834   1.284       .  A
C419        C699   1.474       .  S
O420       Zr432   2.447       .  S
O420        C422   1.290       .  A
O421       Zr456   2.427       .  S
O421        C422   1.287       .  A
C422        C542   1.495       .  S
O423       Zr432   2.439       .  S
O423        C425   1.288       .  A
O424      Zr1871   2.430       .  S
O424        C425   1.288       .  A
C425        C556   1.487       .  S
O426       Zr429   2.442       .  S
O426        C428   1.288       .  A
O427       Zr456   2.422       .  S
O427        C428   1.287       .  A
C428        C682   1.490       .  S
Zr429       O430   2.434       .  S
Zr429      O1847   2.435       .  S
Zr429       O435   2.371       .  S
Zr429       O436   2.372       .  S
Zr429      O1875   2.364       .  S
Zr429      O1877   2.373       .  S
O430        H473   0.990       .  S
O431      Zr1845   2.439       .  S
O431        H472   0.990       .  S
O431        H476   0.990       .  S
Zr432       O433   2.436       .  S
Zr432       O436   2.370       .  S
Zr432       O435   2.369       .  S
O433        H474   0.990       .  S
O433        H477   0.990       .  S
O434        H467   0.990       .  S
O435      Zr1871   2.388       .  S
O436       Zr456   2.385       .  S
O436        H463   0.965       .  S
O437        C439   1.288       .  A
O438      Zr1872   2.423       .  S
C439        C570   1.489       .  S
O440       Zr452   2.438       .  S
O440        C442   1.287       .  A
O441        C442   1.287       .  A
C442        C654   1.488       .  S
O443       Zr452   2.437       .  S
O443        C445   1.288       .  A
O444       C1861   1.285       .  A
C445       O1860   1.284       .  A
C445        C671   1.483       .  S
O446       Zr449   2.433       .  S
O447       Zr455   2.429   1_455  S
C448        C587   1.494       .  S
Zr449       O451   2.433       .  S
Zr449       O461   2.369       .  S
Zr449       O459   2.370       .  S
O450        H470   0.990       .  S
O450        H475   0.990       .  S
O451        H471   0.990       .  S
Zr452       O453   2.433   1_655  S
Zr452      O1870   2.438       .  S
Zr452       O458   2.369   1_655  S
Zr452       O457   2.371   1_655  S
Zr452      O1878   2.371       .  S
Zr452      O1876   2.366       .  S
O453        H469   0.990       .  S
O454      Zr1868   2.435       .  S
O454        H468   0.990       .  S
O454        H478   0.990       .  S
Zr455      O1840   2.419       .  S
Zr455      O1851   2.381       .  S
Zr455      O1522   2.386       .  S
Zr455       O461   2.385   1_655  S
Zr456      O1854   2.420       .  S
Zr456      O1519   2.387       .  S
Zr456      O1875   2.380       .  S
O457      Zr1518   2.390   1_556  S
O457        H465   0.966       .  S
O459      Zr1845   2.362       .  S
O459      Zr1872   2.376       .  S
O460      Zr1868   2.370       .  S
O460      Zr1517   2.386   1_556  S
O460        H464   0.966       .  S
O461      Zr1845   2.371       .  S
O461        H466   0.966       .  S
O462      Zr1868   2.367       .  S
O479       Zr491   2.451       .  S
O479        C481   1.291       .  A
O480      Zr1225   2.426       .  S
O480        C481   1.287       .  A
C481        C559   1.487       .  S
O482       Zr494   2.433       .  S
O482       C1192   1.287       .  A
O483       Zr518   2.418       .  S
O483        C484   1.286       .  A
C484       O1190   1.286       .  A
C484        C629   1.475       .  S
O485       Zr494   2.432       .  S
O485       C1195   1.286       .  A
O486       Zr517   2.422       .  S
O486       C1195   1.286       .  A
C487       O1193   1.288       .  A
C487       O1194   1.287       .  A
C487        C643   1.496       .  S
O488       Zr491   2.461       .  S
O488        C490   1.293       .  A
O489       Zr518   2.406       .  S
O489        C490   1.282       .  A
C490        C584   1.488       .  S
Zr491       O492   2.435       .  S
Zr491       O497   2.379       .  S
Zr491       O498   2.367       .  S
O492        H535   0.990       .  S
O493        H534   0.990       .  S
O493        H538   0.990       .  S
Zr494      O1203   2.435       .  S
Zr494       O496   2.435       .  S
Zr494      O1206   2.370       .  S
Zr494      O1205   2.367       .  S
Zr494       O522   2.370       .  S
Zr494       O524   2.375       .  S
O495      Zr1202   2.436       .  S
O495        H536   0.990       .  S
O495        H539   0.990       .  S
O496        H529   0.990       .  S
O497      Zr1202   2.364       .  S
O497      Zr1225   2.378       .  S
O498      Zr1202   2.374       .  S
O498       Zr518   2.385       .  S
O498        H525   0.964       .  S
O499       Zr511   2.447       .  S
O499       C1209   1.290   1_565  A
O500       C1209   1.285   1_565  A
C501       O1207   1.292       .  A
C501       O1208   1.285       .  A
C501        C615   1.494       .  S
O502       Zr514   2.435       .  S
O503       Zr517   2.436       .  S
C504        C545   1.487       .  S
O505       Zr514   2.432       .  S
O506      Zr1226   2.422       .  S
C507        C573   1.489       .  S
O508       Zr511   2.446       .  S
O508       C1218   1.290       .  A
O509        C510   1.282       .  A
C510       O1216   1.291       .  A
C510        C598   1.481       .  S
Zr511      O1220   2.436       .  S
Zr511       O513   2.433   1_565  S
Zr511      O1227   2.371       .  S
Zr511      O1228   2.371       .  S
Zr511       O523   2.368   1_565  S
Zr511       O521   2.373   1_565  S
O512      Zr1219   2.437       .  S
O512        H532   0.990       .  S
O512        H537   0.990       .  S
O513        H533   0.990       .  S
Zr514       O516   2.434       .  S
Zr514       O524   2.370       .  S
Zr514       O522   2.368       .  S
O515        H531   0.990       .  S
O516        H530   0.990       .  S
O516        H540   0.990       .  S
Zr517      O1188   2.424       .  S
Zr517      O1205   2.378       .  S
Zr517       O522   2.377       .  S
Zr517       O877   2.389       .  S
Zr518      O1214   2.417   1_545  S
Zr518       O873   2.379   1_545  S
Zr518      O1232   2.379   1_545  S
O519      Zr1219   2.370       .  S
O519       Zr872   2.383   1_556  S
O519        H527   0.966       .  S
O520      Zr1219   2.374       .  S
O522        H526   0.965       .  S
O523       Zr871   2.391   1_546  S
O523        H528   0.965       .  S
O524      Zr1226   2.378       .  S
C541        C542   1.406       .  A
C541        C546   1.403       .  A
C541        H548   1.084       .  S
C543        C544   1.407       .  A
C543        N550   1.438       .  S
C544        C545   1.405   1_554  A
C544        H549   1.083       .  S
C546        N547   1.433       .  S
N547        H551   1.046       .  S
N547        H552   1.046       .  S
N550        H553   1.046       .  S
N550        H554   1.046       .  S
C555        C560   1.406       .  A
C555        H562   1.083       .  S
C556        C557   1.415       .  A
C557        C558   1.406       .  A
C557        N564   1.438       .  S
C558        C559   1.403       .  A
C558        H563   1.084       .  S
C560        N561   1.438       .  S
N561        H565   1.046       .  S
N561        H566   1.046       .  S
N564        H567   1.046       .  S
N564        H568   1.046       .  S
C569        C570   1.406   1_556  A
C569        C574   1.407       .  A
C570        C571   1.415       .  A
C571        C572   1.403       .  A
C571        N578   1.438       .  S
C572        C573   1.405       .  A
C572        H577   1.083       .  S
C573        C574   1.416   1_554  A
N578        H581   1.046       .  S
C583        C584   1.402       .  A
C583        H590   1.084       .  S
C584        C585   1.420       .  A
C585        C586   1.409       .  A
C585        N592   1.439       .  S
C586        H591   1.084       .  S
C587        C588   1.413       .  A
C588        N589   1.432       .  S
N592        H595   1.045       .  S
C597       C1306   1.402   1_545  A
C597        C602   1.391       .  A
C597        H604   1.084       .  S
C598       C1305   1.402       .  A
C598        C599   1.417       .  A
C599        C600   1.405       .  A
C599        N606   1.438       .  S
C600       C1309   1.405       .  A
C600        H605   1.084       .  S
C601       C1308   1.406       .  A
C601        C602   1.418   1_565  A
C602        N603   1.433       .  S
N603        H607   1.045       .  S
N603        H608   1.045       .  S
N606        H609   1.045       .  S
N606        H610   1.046       .  S
C611        C612   1.405       .  A
C611        C616   1.407       .  A
C611        H618   1.083       .  S
C612        C613   1.417       .  A
C613        C614   1.403       .  A
C613       N1328   1.433       .  S
C614        C615   1.405       .  A
C614       H1327   1.084       .  S
C615        C616   1.417       .  A
C616        N617   1.433       .  S
N617        H621   1.046       .  S
N617        H622   1.046       .  S
H619       C1322   1.084       .  S
N620       C1321   1.433       .  S
N620       H1331   1.046       .  S
N620       H1332   1.046   1_565  S
H623       N1328   1.046       .  S
H624       N1328   1.045       .  S
C625       C1334   1.403       .  A
C625        C630   1.399       .  A
C625        H632   1.084       .  S
C626       C1333   1.403       .  A
C626        C627   1.413       .  A
C627        C628   1.406       .  A
C627        N634   1.437       .  S
C628       C1337   1.405       .  A
C628        H633   1.084       .  S
C629       C1336   1.404   1_545  A
C629        C630   1.413       .  A
C630        N631   1.439       .  S
N631        H635   1.046       .  S
N631        H636   1.046       .  S
N634        H637   1.046       .  S
N634        H638   1.046       .  S
C639        C640   1.404       .  A
C639        C644   1.403       .  A
C639        H646   1.083       .  S
C640       C1349   1.418   1_565  A
C641       C1348   1.413       .  A
C641        C642   1.407       .  A
C641        N648   1.438       .  S
C642       C1351   1.406       .  A
C642        H647   1.084       .  S
C643       C1350   1.408   1_565  A
C643        C644   1.418       .  A
C644        N645   1.439       .  S
N645        H649   1.046       .  S
N645        H650   1.046       .  S
N648       H1359   1.046       .  S
N648        H652   1.046       .  S
H651       N1356   1.046       .  S
C653       C2070   1.407       .  A
C653        C658   1.408       .  A
C653        H660   1.084       .  S
C654       C2069   1.406   1_655  A
C654        C655   1.416       .  A
C655        C656   1.403       .  A
C655        N662   1.439       .  S
C656       C2073   1.405   1_655  A
C656        H661   1.083       .  S
C657       C2072   1.404       .  A
C657        C658   1.413       .  A
C658        N659   1.438       .  S
N659        H663   1.046       .  S
N659        H664   1.046       .  S
N662        H665   1.046       .  S
N662        H666   1.045       .  S
C667       C2084   1.406       .  A
C667        C672   1.407       .  A
C667        H674   1.083       .  S
C668       C2083   1.404   1_655  A
C668        C669   1.413       .  A
C669        C670   1.402       .  A
C669        N676   1.438       .  S
C670        C671   1.405       .  A
C670        H675   1.084       .  S
C671       C2088   1.415   1_655  A
C672       C2087   1.417       .  A
C672        N673   1.437       .  S
N673        H677   1.046       .  S
N673        H678   1.044       .  S
N676        H679   1.046       .  S
N676        H680   1.045       .  S
C681        C682   1.406       .  A
C681       C2102   1.405       .  A
C681        H688   1.083       .  S
C682        C683   1.414       .  A
C683       C2100   1.402       .  A
C683        N690   1.433       .  S
C684       C2099   1.402       .  A
C684        C685   1.405       .  A
C684        H689   1.083       .  S
C685        C686   1.419   1_455  A
C686       C2097   1.407       .  A
C686        N687   1.439       .  S
N687        H691   1.046       .  S
N687        H692   1.043   1_655  S
N690        H693   1.046       .  S
N690        H694   1.046       .  S
C695        C696   1.401       .  A
C695        C700   1.401       .  A
C695        H702   1.084       .  S
C696       C2113   1.412       .  A
C697       C2112   1.415   1_455  A
C697        C698   1.404       .  A
C697        N704   1.438       .  S
C698       C2115   1.404   1_455  A
C698        H703   1.084       .  S
C699       C2114   1.404       .  A
C699        C700   1.412       .  A
C700        N701   1.438       .  S
N701        H705   1.046       .  S
N701        H706   1.046       .  S
N704        H707   1.046       .  S
N704        H708   1.046       .  S
O709       Zr721   2.448       .  S
O709        C711   1.290       .  A
O710      Zr2163   2.422       .  S
O710        C711   1.285       .  A
C711        C994   1.496       .  S
O712       Zr724   2.435       .  S
O712        C714   1.287       .  A
O713        C714   1.287       .  A
C714       C1011   1.476       .  S
O715       Zr724   2.431       .  S
O715        C717   1.287       .  A
O716       Zr747   2.410       .  S
O716       C2133   1.283       .  A
C717       O2132   1.285       .  A
C717       C1050   1.488       .  S
O718       Zr721   2.430       .  S
O718        C720   1.285       .  A
O719       Zr748   2.427       .  S
C720        C955   1.479       .  S
Zr721       O722   2.433       .  S
Zr721       O727   2.369       .  S
Zr721       O728   2.376       .  S
O722        H765   0.990       .  S
O723        H764   0.991       .  S
O723        H768   0.989       .  S
Zr724       O725   2.436       .  S
Zr724      O2142   2.435       .  S
Zr724       O728   2.363       .  S
Zr724       O727   2.374       .  S
Zr724      O2168   2.368       .  S
Zr724      O2170   2.371       .  S
O725        H766   0.990       .  S
O725        H769   0.990       .  S
O726      Zr2140   2.434   1_455  S
O726        H759   0.990       .  S
O727      Zr2163   2.374       .  S
O728        H755   0.966       .  S
O729       Zr741   2.442   1_655  S
O729        C731   1.288       .  A
O730       Zr748   2.424       .  S
O730       C2147   1.288       .  A
C731       O2146   1.287       .  A
C731       C1022   1.486       .  S
O732       Zr744   2.440       .  S
O732        C734   1.289       .  A
O733       Zr747   2.406   1_455  S
C734        C980   1.479       .  S
O735       Zr744   2.431   1_545  S
O735        C737   1.286   1_545  A
O736      Zr2164   2.434       .  S
O736        C737   1.289       .  A
C737        C966   1.491       .  S
O738       Zr741   2.449       .  S
O738        C740   1.290       .  A
O739        C740   1.284       .  A
C740       C1039   1.488       .  S
Zr741       O742   2.437       .  S
Zr741      O2159   2.437   1_455  S
Zr741       O749   2.374       .  S
Zr741       O750   2.368       .  S
Zr741      O2169   2.373   1_455  S
Zr741      O2167   2.372   1_455  S
O742        H762   0.990       .  S
O742        H767   0.990       .  S
O743      Zr2157   2.436       .  S
O743        H763   0.990       .  S
Zr744       O745   2.438       .  S
Zr744       O750   2.367       .  S
Zr744       O749   2.373       .  S
O745        H761   0.990       .  S
O746        H760   0.991       .  S
O746        H770   0.990       .  S
Zr747      O2126   2.413       .  S
Zr747      O2143   2.380       .  S
Zr747       O752   2.388   1_655  S
Zr747      O1461   2.380       .  S
Zr748      O2152   2.431       .  S
Zr748      O2165   2.387       .  S
Zr748       O751   2.385       .  S
Zr748      O1462   2.387   1_565  S
O749      Zr2164   2.389       .  S
O749        H757   0.966       .  S
O751      Zr2157   2.371       .  S
O752      Zr2140   2.372   1_455  S
O752        H756   0.965       .  S
O753      Zr2157   2.365       .  S
O753      Zr1455   2.375       .  S
O753        H758   0.966       .  S
O754      Zr2140   2.374   1_455  S
O754      Zr1456   2.381       .  S
O771       Zr783   2.429       .  S
O771        C773   1.286       .  A
O772       Zr809   2.423   1_554  S
O772       C2189   1.287       .  A
C773       O2188   1.288       .  A
C773       C1053   1.490       .  S
O774       Zr786   2.444   1_556  S
O774        C776   1.289       .  A
O775       Zr810   2.427       .  S
O775        C776   1.287   1_554  A
C776        C896   1.491       .  S
O777       Zr786   2.445       .  S
O777        C779   1.288       .  A
O778      Zr2225   2.435       .  S
O778        C779   1.289       .  A
C779        C910   1.498       .  S
O780       Zr783   2.431       .  S
O780        C782   1.286       .  A
O781       Zr810   2.415       .  S
O781        C782   1.285       .  A
C782       C1036   1.482       .  S
Zr783       O784   2.432       .  S
Zr783      O2201   2.439       .  S
Zr783       O789   2.373       .  S
Zr783       O790   2.372       .  S
Zr783      O2229   2.359       .  S
Zr783      O2231   2.365       .  S
O784        H827   0.990       .  S
O785      Zr2199   2.434       .  S
O785        H826   0.990       .  S
O785        H830   0.990       .  S
Zr786       O787   2.435       .  S
Zr786      O1142   2.438   1_554  S
Zr786       O790   2.375       .  S
Zr786       O789   2.374       .  S
Zr786      O1168   2.370   1_554  S
Zr786      O1170   2.368   1_554  S
O787        H828   0.990       .  S
O787        H831   0.990       .  S
O788      Zr1140   2.432       .  S
O788        H821   0.990       .  S
O789      Zr2225   2.384       .  S
O790       Zr810   2.381       .  S
O790        H817   0.965       .  S
O791      Zr1157   2.434       .  S
O791        C793   1.287       .  A
O792      Zr2226   2.430   1_556  S
O792       C1147   1.288   1_556  A
C793       O1146   1.288       .  A
C793        C924   1.488       .  S
O794       Zr806   2.441       .  S
O794        C796   1.289       .  A
O795      Zr1163   2.425       .  S
O795        C796   1.287   1_455  A
C796       C1008   1.484       .  S
O797       Zr806   2.445       .  S
O797        C799   1.289       .  A
O798      Zr1164   2.418       .  S
O798       C2215   1.286       .  A
C799       O2214   1.284       .  A
C799       C1025   1.485       .  S
O800       Zr803   2.435       .  S
O800       C1156   1.286       .  A
O801       Zr809   2.438   1_455  S
O801       C1156   1.289       .  A
C802       O1154   1.286       .  A
C802       O1155   1.286       .  A
C802        C941   1.482       .  S
Zr803      O1145   2.441   1_556  S
Zr803      O1158   2.437       .  S
Zr803       O805   2.435   1_556  S
Zr803      O1165   2.368       .  S
Zr803      O1166   2.369       .  S
Zr803       O815   2.373   1_556  S
Zr803       O813   2.372   1_556  S
O804      Zr1157   2.436       .  S
O804        H824   0.990       .  S
O804        H829   0.990       .  S
O805        H825   0.990       .  S
Zr806       O807   2.435   1_655  S
Zr806      O2224   2.434       .  S
Zr806       O812   2.373   1_655  S
Zr806       O811   2.370   1_655  S
Zr806      O2232   2.367       .  S
Zr806      O2230   2.369       .  S
O807        H823   0.990       .  S
O808      Zr2222   2.434       .  S
O808        H822   0.990       .  S
O808        H832   0.990       .  S
Zr809      O2194   2.428   1_556  S
Zr809      O1149   2.412       .  S
Zr809      O2205   2.380   1_556  S
Zr809      O1166   2.384   1_655  S
Zr809      O2584   2.390       .  S
Zr809       O815   2.383   1_656  S
Zr810      O2208   2.420       .  S
Zr810      O1152   2.413   1_554  S
Zr810      O2581   2.386   1_554  S
Zr810      O2229   2.376       .  S
Zr810      O1170   2.375   1_554  S
O811      Zr1157   2.372       .  S
O811      Zr2580   2.384       .  S
O811        H819   0.967       .  S
O812      Zr1157   2.372       .  S
O812      Zr1163   2.382       .  S
O813      Zr2199   2.367       .  S
O813      Zr2226   2.382       .  S
O814      Zr1140   2.372       .  S
O814      Zr2222   2.363       .  S
O814      Zr2579   2.381       .  S
O814        H818   0.966       .  S
O815      Zr2199   2.367       .  S
O815        H820   0.966       .  S
O816      Zr1140   2.366       .  S
O816      Zr2222   2.374       .  S
O816      Zr1164   2.377       .  S
O833       Zr845   2.448       .  S
O833        C835   1.291       .  A
O834        C835   1.286       .  A
C835        C913   1.495       .  S
O836       Zr848   2.434       .  S
O837       Zr872   2.425       .  S
O837        C838   1.287       .  A
C838        C983   1.486       .  S
O839       Zr848   2.444       .  S
O840       Zr871   2.426   1_545  S
C841        C997   1.496       .  S
O842       Zr845   2.464   1_556  S
O842        C844   1.294       .  A
O843       Zr872   2.417       .  S
O843        C844   1.284   1_554  A
C844        C938   1.495       .  S
Zr845       O846   2.433       .  S
Zr845      O1201   2.435   1_554  S
Zr845       O851   2.376       .  S
Zr845       O852   2.368       .  S
Zr845      O1229   2.369   1_554  S
Zr845      O1231   2.372   1_554  S
O846        H889   0.990       .  S
O847      Zr1199   2.437       .  S
O847        H888   0.990       .  S
O847        H892   0.991       .  S
Zr848       O850   2.434   1_545  S
Zr848       O876   2.369   1_545  S
Zr848       O878   2.377   1_545  S
O849        H890   0.990       .  S
O849        H893   0.990       .  S
O850        H883   0.990       .  S
O852       Zr872   2.383       .  S
O852        H879   0.965       .  S
O853       Zr865   2.449       .  S
O854      Zr1226   2.429       .  S
C855        C969   1.491       .  S
O856       Zr868   2.440   1_556  S
O856       C1212   1.288       .  A
O857       Zr871   2.428       .  S
O857       C1212   1.288   1_554  A
C858       O1210   1.288       .  A
C858       O1211   1.289       .  A
C858        C899   1.498       .  S
O859       Zr868   2.450       .  S
O859       C1215   1.290       .  A
O860       C1215   1.284       .  A
C861       O1213   1.288       .  A
C861       O1214   1.285       .  A
C861        C927   1.483       .  S
O862       Zr865   2.443       .  S
O863      Zr1225   2.400       .  S
O863        C864   1.281       .  A
C864        C952   1.482       .  S
Zr865       O867   2.435       .  S
Zr865       O877   2.369       .  S
Zr865       O875   2.367       .  S
O866        H886   0.990       .  S
O866        H891   0.990       .  S
O867        H887   0.990       .  S
Zr868      O1223   2.432   1_554  S
Zr868       O870   2.435       .  S
Zr868      O1228   2.373   1_554  S
Zr868      O1227   2.371   1_554  S
Zr868       O878   2.368       .  S
Zr868       O876   2.373       .  S
O869      Zr1222   2.434       .  S
O869        H885   0.990       .  S
O870        H884   0.990       .  S
O870        H894   0.990       .  S
Zr871      O1217   2.405   1_554  S
Zr871      O1228   2.384   1_554  S
Zr871       O876   2.380       .  S
Zr872      O1208   2.418   1_554  S
Zr872      O1229   2.383   1_554  S
O873      Zr1222   2.369       .  S
O873        H881   0.965       .  S
O874      Zr1222   2.370       .  S
O874      Zr1225   2.385   1_565  S
O875      Zr1199   2.373       .  S
O875      Zr1226   2.383       .  S
O876        H880   0.965       .  S
O877      Zr1199   2.372       .  S
O877        H882   0.964       .  S
C895        C896   1.405       .  A
C895        C900   1.403       .  A
C895        H902   1.084       .  S
C896       C1251   1.417   1_556  A
C897       C1250   1.420       .  A
C897        C898   1.413       .  A
C897        N904   1.438       .  S
C898        C899   1.409       .  A
C898        H903   1.083       .  S
C899       C1254   1.414       .  A
C900       C1253   1.412       .  A
C900        N901   1.433       .  S
N901        H905   1.046       .  S
N901        H906   1.046       .  S
N904        H907   1.045       .  S
N904        H908   1.046       .  S
C909       C1264   1.408       .  A
C909        C914   1.412       .  A
C909        H916   1.083       .  S
C910       C1263   1.408   1_554  A
C910        C911   1.418       .  A
C911        C912   1.405       .  A
C911        N918   1.438       .  S
C912        C913   1.406       .  A
C912        H917   1.083       .  S
C913       C1268   1.417   1_554  A
C914       C1267   1.420       .  A
C914        N915   1.438       .  S
N915        H919   1.045       .  S
N915        H920   1.046       .  S
N918        H921   1.045       .  S
N918        H922   1.046       .  S
C923        C924   1.406       .  A
C923        C928   1.406       .  A
C923       H1284   1.081       .  S
C924        C925   1.415       .  A
C925        C926   1.402       .  A
C925        N932   1.438       .  S
C926        C927   1.404       .  A
C926        H931   1.084       .  S
C927        C928   1.414       .  A
C928       N1283   1.439       .  S
N929       C1282   1.438       .  S
N929       H1287   1.046       .  S
N929       H1288   1.046       .  S
H930       C1277   1.083       .  S
N932        H935   1.046       .  S
N932       H1290   1.046       .  S
H933       N1283   1.046       .  S
H934       N1283   1.046       .  S
H936       N1286   1.046       .  S
C937        C938   1.405       .  A
C937       C1296   1.402       .  A
C937        H944   1.084       .  S
C938        C939   1.422   1_556  A
C939        C940   1.410       .  A
C939        N946   1.439       .  S
C940       C1295   1.405   1_554  A
C940        H945   1.083       .  S
C941       C1294   1.405       .  A
C941        C942   1.411       .  A
C942       C1291   1.398       .  A
C942        N943   1.433       .  S
N943       H1301   1.045       .  S
N943       H1302   1.046       .  S
N946        H949   1.045       .  S
N946       H1304   1.046       .  S
H947       N1297   1.045       .  S
H948       N1297   1.046       .  S
H950       N1300   1.046       .  S
C951        C956   1.392       .  A
C951        H958   1.084       .  S
C952        C953   1.417   1_545  A
C953        C954   1.405       .  A
C953        N960   1.439       .  S
C954        H959   1.083       .  S
C955        C956   1.418       .  A
C956        N957   1.433       .  S
N957        H961   1.044       .  S
N957        H962   1.045       .  S
N960        H963   1.045   1_565  S
N960        H964   1.046       .  S
C965        C966   1.406   1_545  A
C965        C970   1.406       .  A
C965        H972   1.083       .  S
C966        C967   1.416       .  A
C967        C968   1.401       .  A
C968        C969   1.405   1_565  A
C969        C970   1.415       .  A
C970        N971   1.433       .  S
N971        H975   1.046       .  S
N971        H976   1.046       .  S
C979        C984   1.401       .  A
C979        H986   1.084       .  S
C980        C981   1.415       .  A
C981        C982   1.406       .  A
C981        N988   1.439       .  S
C982        H987   1.084       .  S
C983        C984   1.414       .  A
C984        N985   1.438       .  S
N985        H989   1.046       .  S
N985        H990   1.046       .  S
N988        H991   1.046       .  S
N988        H992   1.046       .  S
C993        C994   1.406       .  A
C993        C998   1.406       .  A
C993       H1000   1.083       .  S
C995        C996   1.410       .  A
C995       N1002   1.438       .  S
C996       H1001   1.083       .  S
C997        C998   1.417       .  A
C998        N999   1.439       .  S
N999       H1003   1.045       .  S
N999       H1004   1.046       .  S
N1002      H1006   1.045       .  S
C1007      C2424   1.404       .  A
C1007      C1012   1.406       .  A
C1007      H1014   1.084       .  S
C1008      C2423   1.405   1_655  A
C1008      C1009   1.413       .  A
C1009      C1010   1.404       .  A
C1009      N1016   1.438       .  S
C1010      C2427   1.403       .  A
C1010      H1015   1.084       .  S
C1011      C2426   1.403       .  A
C1011      C1012   1.411       .  A
C1012      N1013   1.438       .  S
N1013      H1017   1.046       .  S
N1013      H1018   1.046       .  S
N1016      H1019   1.046       .  S
N1016      H1020   1.045       .  S
C1021      C2438   1.405       .  A
C1021      C1026   1.403       .  A
C1021      H1028   1.084       .  S
C1022      C2437   1.403   1_655  A
C1022      C1023   1.415       .  A
C1023      C1024   1.405       .  A
C1023      N1030   1.438       .  S
C1024      C1025   1.404       .  A
C1024      H1029   1.084       .  S
C1025      C2442   1.416   1_655  A
C1026      C2441   1.412       .  A
C1026      N1027   1.437       .  S
N1027      H1031   1.046       .  S
N1027      H1032   1.046       .  S
N1030      H1033   1.046       .  S
N1030      H1034   1.046       .  S
C1035      C1036   1.405       .  A
C1035      C2456   1.402       .  A
C1035      H1042   1.083       .  S
C1036      C1037   1.412       .  A
C1037      C2454   1.399       .  A
C1037      N1044   1.433       .  S
C1038      C2453   1.401       .  A
C1038      C1039   1.404       .  A
C1038      H1043   1.084       .  S
C1039      C1040   1.415   1_455  A
C1040      C2451   1.405       .  A
C1040      N1041   1.433       .  S
N1041      H1045   1.046       .  S
N1041      H1046   1.046       .  S
N1044      H1047   1.046       .  S
N1044      H1048   1.045       .  S
C1049      C1050   1.405       .  A
C1049      C1054   1.401       .  A
C1049      H1056   1.083       .  S
C1050      C2467   1.417       .  A
C1051      C2466   1.418   1_455  A
C1051      C1052   1.408       .  A
C1051      N1058   1.438       .  S
C1052      C2469   1.405   1_455  A
C1052      H1057   1.084       .  S
C1053      C2468   1.406       .  A
C1053      C1054   1.417       .  A
C1054      N1055   1.439       .  S
N1055      H1059   1.046       .  S
N1055      H1060   1.046       .  S
N1058      H1061   1.046       .  S
N1058      H1062   1.046       .  S
O1063     Zr1075   2.438       .  S
O1063      C1065   1.288       .  A
O1064     Zr2517   2.424       .  S
O1064      C1065   1.286       .  A
C1065      C1348   1.481       .  S
O1066     Zr1078   2.437       .  S
O1066      C1068   1.288       .  A
O1067      C1068   1.286       .  A
C1068      C1365   1.484       .  S
O1069     Zr1078   2.437       .  S
O1069      C1071   1.288       .  A
O1070     Zr1101   2.408       .  S
O1070      C2487   1.283       .  A
C1071      O2486   1.284       .  A
C1071      C1404   1.475       .  S
O1072     Zr1075   2.419       .  S
O1072      C1074   1.283       .  A
O1073     Zr1102   2.427       .  S
C1074      C1309   1.475       .  S
Zr1075     O1076   2.435       .  S
Zr1075     O1081   2.365       .  S
Zr1075     O1082   2.374       .  S
O1076      H1119   0.990       .  S
O1077      H1118   0.990       .  S
O1077      H1122   0.990       .  S
Zr1078     O1079   2.437       .  S
Zr1078     O2496   2.434       .  S
Zr1078     O1082   2.363       .  S
Zr1078     O1081   2.370       .  S
Zr1078     O2522   2.369       .  S
Zr1078     O2524   2.374       .  S
O1079      H1120   0.990       .  S
O1079      H1123   0.990       .  S
O1080     Zr2494   2.434   1_455  S
O1080      H1113   0.990       .  S
O1081     Zr2517   2.380       .  S
O1082      H1109   0.965       .  S
O1083     Zr1095   2.430   1_655  S
O1083      C1085   1.286       .  A
O1084     Zr1102   2.429   1_565  S
O1084      C2501   1.289       .  A
C1085      O2500   1.287       .  A
C1085      C1376   1.477       .  S
O1086     Zr1098   2.428       .  S
O1086      C1088   1.286       .  A
O1087     Zr1101   2.417   1_455  S
C1088      C1334   1.475       .  S
O1089     Zr1098   2.431       .  S
O1089      C1091   1.285       .  A
O1090     Zr2518   2.441   1_545  S
O1090      C1091   1.290       .  A
C1091      C1320   1.494       .  S
O1092     Zr1095   2.439       .  S
O1092      C1094   1.288       .  A
O1093      C1094   1.283       .  A
C1094      C1393   1.482       .  S
Zr1095     O1096   2.436       .  S
Zr1095     O2513   2.433   1_455  S
Zr1095     O1103   2.370       .  S
Zr1095     O1104   2.365       .  S
Zr1095     O2523   2.371   1_455  S
Zr1095     O2521   2.372   1_455  S
O1096      H1116   0.990       .  S
O1096      H1121   0.990       .  S
O1097     Zr2511   2.435       .  S
O1097      H1117   0.990       .  S
Zr1098     O1099   2.436   1_545  S
Zr1098     O1104   2.368   1_545  S
Zr1098     O1103   2.367   1_545  S
O1099      H1115   0.990       .  S
O1100      H1114   0.990       .  S
O1100      H1124   0.990       .  S
Zr1101     O2480   2.409       .  S
Zr1101     O2497   2.381       .  S
Zr1101     O1106   2.381   1_655  S
Zr1101     O1815   2.384       .  S
Zr1102     O2506   2.430       .  S
Zr1102     O2519   2.383   1_545  S
Zr1102     O1105   2.383   1_545  S
Zr1102     O1816   2.382       .  S
O1103     Zr2518   2.386       .  S
O1103      H1111   0.966       .  S
O1105     Zr2511   2.372       .  S
O1106     Zr2494   2.371   1_455  S
O1106      H1110   0.965       .  S
O1107     Zr2511   2.369       .  S
O1107     Zr1809   2.375   1_565  S
O1107      H1112   0.965       .  S
O1108     Zr2494   2.379   1_455  S
O1108     Zr1810   2.381   1_455  S
O1125     Zr1137   2.440       .  S
O1125      C1127   1.288       .  A
O1126     Zr1163   2.420       .  S
O1126      C2543   1.286   1_455  A
C1127      O2542   1.285       .  A
C1127      C1407   1.474       .  S
O1128     Zr1140   2.454       .  S
O1128      C1130   1.291       .  A
O1129     Zr1164   2.433       .  S
O1129      C1130   1.287       .  A
C1130      C1250   1.500       .  S
O1131     Zr1140   2.440       .  S
O1131      C1133   1.289       .  A
O1132     Zr2579   2.432       .  S
O1132      C1133   1.288       .  A
C1133      C1264   1.496       .  S
O1134     Zr1137   2.448       .  S
O1134      C1136   1.289       .  A
O1135     Zr1164   2.419       .  S
O1135      C1136   1.286       .  A
C1136      C1390   1.491       .  S
Zr1137     O1138   2.434       .  S
Zr1137     O2555   2.436       .  S
Zr1137     O1143   2.371       .  S
Zr1137     O1144   2.371       .  S
Zr1137     O2583   2.365       .  S
Zr1137     O2585   2.372       .  S
O1138      H1181   0.990       .  S
O1139     Zr2553   2.438       .  S
O1139      H1180   0.990       .  S
O1139      H1184   0.990       .  S
Zr1140     O1141   2.434       .  S
Zr1140     O1144   2.367       .  S
Zr1140     O1143   2.370       .  S
O1141      H1182   0.990       .  S
O1141      H1185   0.990       .  S
O1142      H1175   0.990       .  S
O1143     Zr2579   2.382       .  S
O1144     Zr1164   2.379       .  S
O1144      H1171   0.965       .  S
O1145      C1147   1.288       .  A
O1146     Zr2580   2.430       .  S
C1147      C1278   1.493       .  S
O1148     Zr1160   2.439       .  S
O1148      C1150   1.288       .  A
O1149      C1150   1.285       .  A
C1150      C1362   1.479       .  S
O1151     Zr1160   2.438       .  S
O1151      C1153   1.288       .  A
O1152      C2569   1.284       .  A
C1153      O2568   1.285       .  A
C1153      C1379   1.478       .  S
O1154     Zr1157   2.433       .  S
O1155     Zr1163   2.422       .  S
C1156      C1295   1.492       .  S
Zr1157     O1159   2.434       .  S
Zr1157     O1169   2.370       .  S
Zr1157     O1167   2.368       .  S
O1158      H1178   0.990       .  S
O1158      H1183   0.990       .  S
O1159      H1179   0.990       .  S
Zr1160     O1161   2.434   1_655  S
Zr1160     O2578   2.437       .  S
Zr1160     O1166   2.372   1_655  S
Zr1160     O1165   2.372   1_655  S
Zr1160     O2586   2.369       .  S
Zr1160     O2584   2.372       .  S
O1161      H1177   0.990       .  S
O1162     Zr2576   2.432       .  S
O1162      H1176   0.990       .  S
O1162      H1186   0.990       .  S
Zr1163     O2548   2.424   1_455  S
Zr1163     O2559   2.380   1_455  S
Zr1163     O2230   2.383   1_455  S
Zr1163     O1169   2.385       .  S
Zr1164     O2562   2.408       .  S
Zr1164     O2227   2.388       .  S
Zr1164     O2583   2.383       .  S
O1165     Zr2226   2.385   1_556  S
O1165      H1173   0.966       .  S
O1167     Zr2553   2.366       .  S
O1167     Zr2580   2.381       .  S
O1168     Zr2576   2.375       .  S
O1168     Zr2225   2.388   1_556  S
O1168      H1172   0.965       .  S
O1169     Zr2553   2.371       .  S
O1169      H1174   0.966       .  S
O1170     Zr2576   2.366       .  S
O1187     Zr1199   2.452       .  S
O1187      C1189   1.291       .  A
O1188      C1189   1.286       .  A
C1189      C1267   1.499       .  S
O1190     Zr1202   2.426       .  S
O1191     Zr1226   2.423       .  S
O1191      C1192   1.286       .  A
C1192      C1337   1.482       .  S
O1193     Zr1202   2.441   1_565  S
O1194     Zr1225   2.426   1_565  S
C1195      C1351   1.481       .  S
O1196     Zr1199   2.451       .  S
O1196      C1198   1.291       .  A
O1197     Zr1226   2.407       .  S
O1197      C1198   1.282       .  A
C1198      C1292   1.484       .  S
Zr1199     O1200   2.435       .  S
Zr1199     O1205   2.372       .  S
Zr1199     O1206   2.372       .  S
O1200      H1243   0.990       .  S
O1201      H1242   0.990       .  S
O1201      H1246   0.990       .  S
Zr1202     O1204   2.434   1_545  S
Zr1202     O1230   2.364   1_545  S
Zr1202     O1232   2.377   1_545  S
O1203      H1244   0.990       .  S
O1203      H1247   0.990       .  S
O1204      H1237   0.990       .  S
O1206     Zr1226   2.388       .  S
O1206      H1233   0.964       .  S
O1207     Zr1219   2.457       .  S
C1209      C1323   1.493       .  S
O1210     Zr1222   2.438       .  S
O1211     Zr1225   2.438   1_565  S
C1212      C1253   1.489       .  S
O1213     Zr1222   2.435       .  S
C1215      C1281   1.493       .  S
O1216     Zr1219   2.448       .  S
O1217      C1218   1.282       .  A
C1218      C1306   1.483       .  S
Zr1219     O1221   2.437       .  S
Zr1219     O1231   2.372       .  S
Zr1219     O1229   2.373       .  S
O1220      H1240   0.990       .  S
O1220      H1245   0.990       .  S
O1221      H1241   0.990       .  S
Zr1222     O1224   2.432       .  S
Zr1222     O1232   2.370       .  S
Zr1222     O1230   2.367       .  S
O1223      H1239   0.990       .  S
O1224      H1238   0.990       .  S
O1224      H1248   0.990       .  S
Zr1225     O1230   2.375   1_545  S
O1227      H1235   0.966       .  S
O1230      H1234   0.964       .  S
O1231      H1236   0.966       .  S
C1249      C1250   1.406       .  A
C1249      C1254   1.402       .  A
C1249      H1256   1.084       .  S
C1251      C1252   1.409       .  A
C1251      N1258   1.437       .  S
C1252      C1253   1.405   1_554  A
C1252      H1257   1.084       .  S
C1254      N1255   1.433       .  S
N1255      H1259   1.046       .  S
N1255      H1260   1.046       .  S
N1258      H1261   1.046       .  S
N1258      H1262   1.046       .  S
C1263      C1268   1.410       .  A
C1263      H1270   1.083       .  S
C1264      C1265   1.414       .  A
C1265      C1266   1.402       .  A
C1265      N1272   1.433       .  S
C1266      C1267   1.407       .  A
C1266      H1271   1.083       .  S
C1268      N1269   1.439       .  S
N1269      H1273   1.046       .  S
N1269      H1274   1.046       .  S
N1272      H1275   1.045       .  S
N1272      H1276   1.046       .  S
C1277      C1278   1.407   1_556  A
C1277      C1282   1.408       .  A
C1278      C1279   1.417       .  A
C1279      C1280   1.405       .  A
C1279      N1286   1.438       .  S
C1280      C1281   1.405       .  A
C1280      H1285   1.083       .  S
C1281      C1282   1.417   1_554  A
N1286      H1289   1.046       .  S
C1291      C1292   1.403       .  A
C1291      H1298   1.084       .  S
C1292      C1293   1.419       .  A
C1293      C1294   1.407       .  A
C1293      N1300   1.439       .  S
C1294      H1299   1.084       .  S
C1295      C1296   1.415       .  A
C1296      N1297   1.433       .  S
N1300      H1303   1.045       .  S
C1305      C1310   1.389       .  A
C1305      H1312   1.084       .  S
C1306      C1307   1.417       .  A
C1307      C1308   1.408       .  A
C1307      N1314   1.438       .  S
C1308      H1313   1.084       .  S
C1309      C1310   1.416       .  A
C1310      N1311   1.434       .  S
N1311      H1315   1.045       .  S
N1311      H1316   1.045       .  S
N1314      H1317   1.045       .  S
N1314      H1318   1.046       .  S
C1319      C1320   1.406       .  A
C1319      C1324   1.407       .  A
C1319      H1326   1.083       .  S
C1320      C1321   1.418   1_545  A
C1321      C1322   1.401       .  A
C1322      C1323   1.404   1_565  A
C1323      C1324   1.416       .  A
C1324      N1325   1.432       .  S
N1325      H1329   1.046       .  S
N1325      H1330   1.046       .  S
C1333      C1338   1.400       .  A
C1333      H1340   1.084       .  S
C1334      C1335   1.412   1_545  A
C1335      C1336   1.404       .  A
C1335      N1342   1.438       .  S
C1336      H1341   1.084       .  S
C1337      C1338   1.414       .  A
C1338      N1339   1.438       .  S
N1339      H1343   1.046       .  S
N1339      H1344   1.045       .  S
N1342      H1345   1.046       .  S
N1342      H1346   1.045       .  S
C1347      C1348   1.403       .  A
C1347      C1352   1.401       .  A
C1347      H1354   1.084       .  S
C1349      C1350   1.409       .  A
C1349      N1356   1.439       .  S
C1350      H1355   1.083       .  S
C1351      C1352   1.414       .  A
C1352      N1353   1.439       .  S
N1353      H1357   1.046       .  S
N1353      H1358   1.046       .  S
N1356      H1360   1.046       .  S
C1361      C2778   1.404       .  A
C1361      C1366   1.407       .  A
C1361      H1368   1.084       .  S
C1362      C2777   1.406   1_655  A
C1362      C1363   1.413       .  A
C1363      C1364   1.400       .  A
C1363      N1370   1.439       .  S
C1364      C2781   1.403       .  A
C1364      H1369   1.084       .  S
C1365      C2780   1.404       .  A
C1365      C1366   1.414       .  A
C1366      N1367   1.437       .  S
N1367      H1371   1.046       .  S
N1367      H1372   1.046       .  S
N1370      H1373   1.046       .  S
N1370      H1374   1.045       .  S
C1375      C2792   1.404       .  A
C1375      C1380   1.405       .  A
C1375      H1382   1.084       .  S
C1376      C2791   1.403   1_655  A
C1376      C1377   1.414       .  A
C1377      C1378   1.403       .  A
C1377      N1384   1.439       .  S
C1378      C1379   1.404       .  A
C1378      H1383   1.084       .  S
C1379      C2796   1.413   1_655  A
C1380      C2795   1.414       .  A
C1380      N1381   1.436       .  S
N1381      H1385   1.045       .  S
N1381      H1386   1.045       .  S
N1384      H1387   1.046       .  S
N1384      H1388   1.046       .  S
C1389      C1390   1.408       .  A
C1389      C2810   1.404       .  A
C1389      H1396   1.083       .  S
C1390      C1391   1.415       .  A
C1391      C2808   1.400       .  A
C1391      N1398   1.433       .  S
C1392      C2807   1.402       .  A
C1392      C1393   1.405       .  A
C1392      H1397   1.084       .  S
C1393      C1394   1.415   1_455  A
C1394      C2805   1.404       .  A
C1394      N1395   1.439       .  S
N1395      H1399   1.046       .  S
N1395      H1400   1.045       .  S
N1398      H1401   1.046       .  S
N1398      H1402   1.046       .  S
C1403      C1404   1.403       .  A
C1403      C1408   1.401       .  A
C1403      H1410   1.084       .  S
C1404      C2821   1.413       .  A
C1405      C2820   1.414   1_455  A
C1405      C1406   1.404       .  A
C1405      N1412   1.439       .  S
C1406      C2823   1.403   1_455  A
C1406      H1411   1.084       .  S
C1407      C2822   1.404       .  A
C1407      C1408   1.411       .  A
C1408      N1409   1.438       .  S
N1409      H1413   1.046       .  S
N1409      H1414   1.046       .  S
N1412      H1415   1.046       .  S
N1412      H1416   1.046       .  S
O1417     Zr1429   2.449   1_545  S
O1417      C1419   1.290       .  A
O1418      C1419   1.284   1_565  A
C1419      C1702   1.483       .  S
O1420     Zr1432   2.439   1_455  S
O1420      C1422   1.288       .  A
O1421     Zr2164   2.435   1_545  S
O1421      C1422   1.289       .  A
C1422      C1719   1.489   1_455  S
O1423     Zr1432   2.440       .  S
O1423      C1425   1.288       .  A
O1424     Zr1455   2.402   1_545  S
C1425      C1758   1.483       .  S
O1426     Zr1429   2.440       .  S
O1426      C1428   1.287       .  A
O1427     Zr1456   2.430   1_655  S
O1427      C2136   1.288       .  A
C1428      O2135   1.287       .  A
C1428      C1663   1.485       .  S
Zr1429     O1430   2.434   1_565  S
Zr1429     O2139   2.437       .  S
Zr1429     O1435   2.369   1_565  S
Zr1429     O1436   2.376   1_565  S
Zr1429     O2167   2.366       .  S
Zr1429     O2169   2.368       .  S
O1430      H1473   0.990       .  S
O1431     Zr2137   2.436       .  S
O1431      H1472   0.990       .  S
O1431      H1476   0.990       .  S
Zr1432     O1433   2.432       .  S
Zr1432     O1436   2.369       .  S
Zr1432     O1435   2.369       .  S
O1433      H1474   0.991       .  S
O1433      H1477   0.990       .  S
O1434      H1467   0.990       .  S
O1436     Zr2164   2.390   1_645  S
O1436      H1463   0.964       .  S
O1437     Zr1449   2.436       .  S
O1437      C1439   1.287       .  A
O1438     Zr1456   2.416   1_655  S
C1439      C1730   1.478       .  S
O1440     Zr1452   2.434       .  S
O1440      C1442   1.288       .  A
O1441     Zr1455   2.400   1_545  S
O1441      C2150   1.281   1_545  A
C1442      O2149   1.282       .  A
C1442      C1688   1.473       .  S
O1443     Zr1452   2.434       .  S
O1443      C1445   1.286       .  A
O1444      C1445   1.290       .  A
C1445      C1674   1.500       .  S
O1446     Zr1449   2.448       .  S
O1446      C1448   1.290       .  A
O1447     Zr2163   2.411       .  S
O1447      C1448   1.283       .  A
C1448      C1747   1.492       .  S
Zr1449     O1450   2.434       .  S
Zr1449     O1457   2.368       .  S
Zr1449     O1458   2.358       .  S
O1450      H1470   0.990       .  S
O1450      H1475   0.990       .  S
O1451      H1471   0.990       .  S
Zr1452     O1453   2.439       .  S
Zr1452     O2162   2.435       .  S
Zr1452     O1458   2.364       .  S
Zr1452     O1457   2.367       .  S
Zr1452     O2170   2.372       .  S
Zr1452     O2168   2.371       .  S
O1453      H1469   0.990       .  S
O1454     Zr2160   2.434   1_545  S
O1454      H1468   0.990       .  S
O1454      H1478   0.990       .  S
Zr1455     O2155   2.413       .  S
Zr1455     O2166   2.379       .  S
Zr1455     O1460   2.391   1_565  S
Zr1456     O2129   2.417       .  S
Zr1456     O2144   2.388   1_455  S
Zr1456     O1459   2.384   1_455  S
O1457      H1465   0.966       .  S
O1458     Zr2163   2.380       .  S
O1459     Zr2137   2.372       .  S
O1460     Zr2160   2.370   1_545  S
O1460      H1464   0.965       .  S
O1461     Zr2137   2.365       .  S
O1461      H1466   0.966       .  S
O1462     Zr2160   2.375   1_545  S
O1479     Zr1491   2.439   1_655  S
O1479      C1481   1.288       .  A
O1480     Zr1517   2.426       .  S
C1481      C1761   1.483       .  S
O1482     Zr1494   2.440       .  S
O1482      C1484   1.288       .  A
O1483     Zr1518   2.428   1_655  S
O1483      C1484   1.287       .  A
C1484      C1604   1.489       .  S
O1485     Zr1494   2.431       .  S
O1485      C1487   1.286       .  A
O1486      C1487   1.286       .  A
C1487      C1618   1.481       .  S
O1488     Zr1491   2.436       .  S
O1488      C1490   1.286       .  A
O1489     Zr1518   2.428       .  S
O1489      C1490   1.288       .  A
C1490      C1744   1.494       .  S
Zr1491     O1492   2.432   1_455  S
Zr1491     O1497   2.372   1_455  S
Zr1491     O1498   2.371   1_455  S
O1492      H1535   0.990       .  S
O1493      H1534   0.990       .  S
O1493      H1538   0.990       .  S
Zr1494     O1495   2.436       .  S
Zr1494     O1850   2.434   1_554  S
Zr1494     O1498   2.368       .  S
Zr1494     O1497   2.372       .  S
Zr1494     O1876   2.373   1_554  S
Zr1494     O1878   2.367   1_554  S
O1495      H1536   0.990       .  S
O1495      H1539   0.990       .  S
O1496     Zr1848   2.435       .  S
O1496      H1529   0.990       .  S
O1498     Zr1518   2.379   1_655  S
O1498      H1525   0.965       .  S
O1499     Zr1865   2.431       .  S
O1499      C1501   1.286       .  A
O1500      C1855   1.286       .  A
C1501      O1854   1.286       .  A
C1501      C1632   1.483       .  S
O1502     Zr1514   2.449       .  S
O1502      C1504   1.290       .  A
O1503     Zr1871   2.422       .  S
O1503      C1504   1.286       .  A
C1504      C1716   1.491       .  S
O1505     Zr1514   2.446       .  S
O1505      C1507   1.289       .  A
O1506     Zr1872   2.412   1_655  S
C1507      C1733   1.482       .  S
O1508     Zr1511   2.436       .  S
O1508      C1864   1.287       .  A
O1509     Zr1517   2.432   1_556  S
O1509      C1864   1.289       .  A
C1510      O1862   1.287       .  A
C1510      O1863   1.289       .  A
C1510      C1649   1.490       .  S
Zr1511     O1853   2.428   1_556  S
Zr1511     O1866   2.435       .  S
Zr1511     O1513   2.434   1_556  S
Zr1511     O1873   2.373       .  S
Zr1511     O1874   2.369       .  S
Zr1511     O1523   2.370   1_556  S
Zr1511     O1521   2.368   1_556  S
O1512     Zr1865   2.435       .  S
O1512      H1532   0.991       .  S
O1512      H1537   0.989       .  S
O1513      H1533   0.990       .  S
Zr1514     O1515   2.434       .  S
Zr1514     O1520   2.369       .  S
Zr1514     O1519   2.373       .  S
O1515      H1531   0.990       .  S
O1516      H1530   0.990       .  S
O1516      H1540   0.990       .  S
Zr1517     O1857   2.430   1_554  S
Zr1517     O1874   2.382   1_554  S
Zr1517     O1523   2.387       .  S
Zr1518     O1860   2.413   1_454  S
Zr1518     O1878   2.381   1_454  S
O1519     Zr1865   2.372       .  S
O1519      H1527   0.966       .  S
O1520     Zr1865   2.368       .  S
O1520     Zr1871   2.377       .  S
O1522     Zr1848   2.369       .  S
O1522      H1526   0.966       .  S
O1523      H1528   0.967       .  S
O1524     Zr1848   2.371       .  S
O1524     Zr1872   2.383   1_655  S
O1541     Zr1553   2.430   1_554  S
O1541      C1543   1.287       .  A
O1542     Zr2287   2.417   1_545  S
O1542      C1543   1.285       .  A
C1543      C1621   1.478       .  S
O1544     Zr1556   2.433       .  S
O1544      C2254   1.287       .  A
O1545     Zr1580   2.410       .  S
O1545      C1546   1.284       .  A
C1546      O2252   1.287       .  A
C1546      C1691   1.480       .  S
O1547     Zr1556   2.435       .  S
O1547      C2257   1.287       .  A
O1548     Zr1579   2.418       .  S
O1548      C2257   1.286       .  A
C1549      O2255   1.289       .  A
C1549      O2256   1.286       .  A
C1549      C1705   1.485       .  S
O1550     Zr1553   2.451       .  S
O1550      C1552   1.291       .  A
O1551     Zr1580   2.418       .  S
O1551      C1552   1.284   1_554  A
C1552      C1646   1.491       .  S
Zr1553     O1554   2.434   1_556  S
Zr1553     O1909   2.437       .  S
Zr1553     O1559   2.378   1_556  S
Zr1553     O1560   2.369   1_556  S
Zr1553     O1937   2.365       .  S
Zr1553     O1939   2.372       .  S
O1554      H1597   0.990       .  S
O1555     Zr1907   2.436       .  S
O1555      H1596   0.990       .  S
O1555      H1600   0.990       .  S
Zr1556     O2265   2.436       .  S
Zr1556     O1558   2.433       .  S
Zr1556     O2268   2.369       .  S
Zr1556     O2267   2.365       .  S
Zr1556     O1584   2.371       .  S
Zr1556     O1586   2.374       .  S
O1557     Zr2264   2.434       .  S
O1557      H1598   0.990       .  S
O1557      H1601   0.990       .  S
O1558      H1591   0.990       .  S
O1559     Zr2264   2.368       .  S
O1559     Zr2287   2.382   1_545  S
O1560     Zr2264   2.374       .  S
O1560     Zr1580   2.385       .  S
O1560      H1587   0.964       .  S
O1561     Zr1573   2.451       .  S
O1561      C2271   1.291       .  A
O1562     Zr1934   2.409   1_565  S
O1562      C2271   1.283       .  A
C1563      O2269   1.291       .  A
C1563      O2270   1.283       .  A
C1563      C1677   1.495       .  S
O1564     Zr1576   2.445       .  S
O1564      C1920   1.289       .  A
O1565     Zr1579   2.423       .  S
O1565      C1920   1.287       .  A
C1566      O1918   1.289       .  A
C1566      O1919   1.287       .  A
C1566      C1607   1.489       .  S
O1567     Zr1576   2.441       .  S
O1567      C1923   1.288       .  A
O1568     Zr2288   2.412       .  S
O1568      C1923   1.284       .  A
C1569      O1921   1.289       .  A
C1569      O1922   1.285       .  A
C1569      C1635   1.484       .  S
O1570     Zr1573   2.445       .  S
O1570      C2280   1.291       .  A
O1571     Zr1933   2.408       .  S
O1571      C1572   1.282       .  A
C1572      O2278   1.288       .  A
C1572      C1660   1.480       .  S
Zr1573     O2282   2.435       .  S
Zr1573     O1575   2.432   1_565  S
Zr1573     O2289   2.367       .  S
Zr1573     O2290   2.372       .  S
Zr1573     O1585   2.369   1_565  S
Zr1573     O1583   2.368   1_565  S
O1574     Zr2281   2.437       .  S
O1574      H1594   0.990       .  S
O1574      H1599   0.990       .  S
O1575      H1595   0.990       .  S
Zr1576     O1931   2.435   1_554  S
Zr1576     O1578   2.437       .  S
Zr1576     O1936   2.370   1_554  S
Zr1576     O1935   2.375   1_554  S
Zr1576     O1586   2.373       .  S
Zr1576     O1584   2.369       .  S
O1577     Zr1930   2.435       .  S
O1577      H1593   0.990       .  S
O1578      H1592   0.990       .  S
O1578      H1602   0.990       .  S
Zr1579     O2250   2.425       .  S
Zr1579     O1925   2.414   1_554  S
Zr1579     O2267   2.375       .  S
Zr1579     O1936   2.380   1_554  S
Zr1579     O1584   2.384       .  S
Zr1579     O2647   2.387   1_554  S
Zr1580     O1916   2.415   1_554  S
Zr1580     O2276   2.421   1_545  S
Zr1580     O2643   2.382   1_544  S
Zr1580     O1937   2.378   1_554  S
Zr1580     O2294   2.379   1_545  S
O1581     Zr2281   2.365       .  S
O1581     Zr1930   2.372       .  S
O1581     Zr2642   2.381       .  S
O1581      H1589   0.966       .  S
O1582     Zr2281   2.368       .  S
O1582     Zr1930   2.368       .  S
O1582     Zr1933   2.381       .  S
O1583     Zr1907   2.366       .  S
O1583     Zr1934   2.376       .  S
O1584      H1588   0.965       .  S
O1585     Zr1907   2.367       .  S
O1585     Zr2641   2.388   1_545  S
O1585      H1590   0.965       .  S
O1586     Zr2288   2.385       .  S
C1603      C1604   1.405   1_556  A
C1603      C1608   1.401       .  A
C1603      H1610   1.084       .  S
C1604      C1959   1.415       .  A
C1605      C1958   1.414       .  A
C1605      C1606   1.409       .  A
C1605      N1612   1.438       .  S
C1606      C1607   1.408       .  A
C1606      H1611   1.083       .  S
C1607      C1962   1.413       .  A
C1608      C1961   1.412   1_556  A
C1608      N1609   1.433       .  S
N1609      H1613   1.046       .  S
N1609      H1614   1.046       .  S
N1612      H1615   1.046       .  S
N1612      H1616   1.046       .  S
C1617      C1972   1.408       .  A
C1617      C1622   1.408       .  A
C1617      H1624   1.083       .  S
C1618      C1971   1.405   1_554  A
C1618      C1619   1.414       .  A
C1619      C1620   1.401       .  A
C1619      N1626   1.439       .  S
C1620      C1621   1.404       .  A
C1620      H1625   1.084       .  S
C1621      C1976   1.413   1_554  A
C1622      C1975   1.414       .  A
C1622      N1623   1.439       .  S
N1623      H1627   1.046       .  S
N1623      H1628   1.046       .  S
N1626      H1629   1.046       .  S
N1626      H1630   1.046       .  S
C1631      C1632   1.404       .  A
C1631      C1636   1.405       .  A
C1631      H1992   1.082       .  S
C1632      C1633   1.415       .  A
C1633      C1634   1.401       .  A
C1633      N1640   1.439       .  S
C1634      C1635   1.404       .  A
C1634      H1639   1.084       .  S
C1635      C1636   1.415       .  A
C1636      N1991   1.438       .  S
N1637      C1990   1.439       .  S
N1637      H1995   1.046       .  S
N1637      H1996   1.046       .  S
H1638      C1985   1.080       .  S
N1640      H1643   1.046       .  S
N1640      H1998   1.046       .  S
H1641      N1991   1.046       .  S
H1642      N1991   1.046       .  S
H1644      N1994   1.046       .  S
C1645      C1646   1.404       .  A
C1645      C2004   1.400       .  A
C1645      H1652   1.084       .  S
C1646      C1647   1.419   1_556  A
C1647      C1648   1.409       .  A
C1647      N1654   1.438       .  S
C1648      C2003   1.406   1_554  A
C1648      H1653   1.084       .  S
C1649      C2002   1.404       .  A
C1649      C1650   1.413       .  A
C1650      C1999   1.404       .  A
C1650      N1651   1.433       .  S
N1651      H2009   1.045       .  S
N1651      H2010   1.046       .  S
N1654      H1657   1.045       .  S
N1654      H2012   1.046       .  S
H1655      N2005   1.046       .  S
H1656      N2005   1.046       .  S
H1658      N2008   1.046       .  S
C1659      C2368   1.400   1_545  A
C1659      C1664   1.392       .  A
C1659      H1666   1.084       .  S
C1660      C2367   1.402       .  A
C1660      C1661   1.416       .  A
C1661      C1662   1.406       .  A
C1661      N1668   1.438       .  S
C1662      C2371   1.405       .  A
C1662      H1667   1.084       .  S
C1663      C2370   1.408       .  A
C1663      C1664   1.418   1_565  A
C1664      N1665   1.433       .  S
N1665      H1669   1.044       .  S
N1665      H1670   1.046       .  S
N1668      H1671   1.045       .  S
N1668      H1672   1.046       .  S
C1673      C1674   1.408       .  A
C1673      C1678   1.409       .  A
C1673      H1680   1.083       .  S
C1674      C1675   1.418       .  A
C1675      C1676   1.401       .  A
C1675      N2390   1.433       .  S
C1676      C1677   1.404       .  A
C1676      H2389   1.084       .  S
C1677      C1678   1.417       .  A
C1678      N1679   1.433       .  S
N1679      H1683   1.045       .  S
N1679      H1684   1.045       .  S
H1681      C2384   1.084       .  S
N1682      C2383   1.433       .  S
N1682      H2393   1.046       .  S
N1682      H2394   1.046       .  S
H1685      N2390   1.046       .  S
H1686      N2390   1.046       .  S
C1687      C2396   1.400   1_545  A
C1687      C1692   1.397       .  A
C1687      H1694   1.084       .  S
C1688      C2395   1.402       .  A
C1688      C1689   1.412       .  A
C1689      C1690   1.403       .  A
C1689      N1696   1.438       .  S
C1690      C2399   1.404       .  A
C1690      H1695   1.084       .  S
C1691      C2398   1.406   1_545  A
C1691      C1692   1.414       .  A
C1692      N1693   1.438       .  S
N1693      H1697   1.046       .  S
N1693      H1698   1.045       .  S
N1696      H1699   1.046       .  S
N1696      H1700   1.046       .  S
C1701      C1702   1.402   1_565  A
C1701      C1706   1.402       .  A
C1701      H1708   1.084       .  S
C1702      C2411   1.416       .  A
C1703      C2410   1.415       .  A
C1703      C1704   1.406       .  A
C1703      N1710   1.438       .  S
C1704      C2413   1.406       .  A
C1704      H1709   1.084       .  S
C1705      C2412   1.407       .  A
C1705      C1706   1.413   1_545  A
C1706      N1707   1.438       .  S
N1707      H1711   1.046       .  S
N1707      H1712   1.046       .  S
N1710      H2421   1.046       .  S
N1710      H1714   1.046       .  S
H1713      N2418   1.046       .  S
C1715      C1720   1.408       .  A
C1715      H1722   1.084       .  S
C1716      C1717   1.414       .  A
C1717      C1718   1.405       .  A
C1717      N1724   1.438       .  S
C1718      H1723   1.084       .  S
C1719      C1720   1.414   1_655  A
C1720      N1721   1.438       .  S
N1721      H1725   1.046       .  S
N1721      H1726   1.046       .  S
N1724      H1727   1.046       .  S
N1724      H1728   1.045       .  S
C1729      C1734   1.405       .  A
C1729      H1736   1.084       .  S
C1730      C1731   1.413       .  A
C1731      C1732   1.404       .  A
C1731      N1738   1.439       .  S
C1732      C1733   1.405       .  A
C1732      H1737   1.084       .  S
C1734      N1735   1.437       .  S
N1735      H1739   1.046       .  S
N1735      H1740   1.045       .  S
N1738      H1741   1.046       .  S
N1738      H1742   1.045       .  S
C1743      C1744   1.407   1_655  A
C1743      H1750   1.082       .  S
C1744      C1745   1.418       .  A
C1745      N1752   1.438       .  S
C1746      C1747   1.406       .  A
C1746      H1751   1.084       .  S
C1747      C1748   1.416       .  A
C1748      N1749   1.433       .  S
N1749      H1753   1.046       .  S
N1749      H1754   1.045       .  S
N1752      H1755   1.046       .  S
N1752      H1756   1.046       .  S
C1757      C1758   1.404       .  A
C1757      C1762   1.401       .  A
C1757      H1764   1.084       .  S
C1759      C1760   1.406       .  A
C1759      N1766   1.439       .  S
C1760      H1765   1.084       .  S
C1761      C1762   1.413       .  A
C1762      N1763   1.439       .  S
N1763      H1767   1.046       .  S
N1763      H1768   1.046       .  S
N1766      H1769   1.046       .  S
N1766      H1770   1.046       .  S
O1771     Zr1783   2.444       .  S
O1771      C1773   1.289       .  A
O1772      C1773   1.285       .  A
C1773      C2056   1.491       .  S
O1774     Zr1786   2.441       .  S
O1774      C1776   1.289       .  A
O1775     Zr2518   2.426   1_545  S
O1775      C1776   1.287       .  A
C1776      C2073   1.488       .  S
O1777     Zr1786   2.439   1_655  S
O1777      C1779   1.287       .  A
O1778     Zr1809   2.411       .  S
C1779      C2112   1.480       .  S
O1780     Zr1783   2.430       .  S
O1780      C1782   1.285       .  A
O1781     Zr1810   2.428       .  S
O1781      C2490   1.288       .  A
C1782      O2489   1.288       .  A
C1782      C2017   1.484       .  S
Zr1783     O1784   2.433   1_565  S
Zr1783     O2493   2.434       .  S
Zr1783     O1789   2.369   1_565  S
Zr1783     O1790   2.375   1_565  S
Zr1783     O2521   2.366       .  S
Zr1783     O2523   2.365       .  S
O1784      H1827   0.990       .  S
O1785     Zr2491   2.437       .  S
O1785      H1826   0.991       .  S
O1785      H1830   0.989       .  S
Zr1786     O1787   2.435   1_455  S
Zr1786     O1790   2.371   1_455  S
Zr1786     O1789   2.372   1_455  S
O1787      H1828   0.991       .  S
O1787      H1831   0.990       .  S
O1788      H1821   0.990       .  S
O1790     Zr2518   2.388   1_645  S
O1790      H1817   0.965       .  S
O1791     Zr1803   2.441       .  S
O1791      C1793   1.288       .  A
O1792     Zr1810   2.410       .  S
C1793      C2084   1.491       .  S
O1794     Zr1806   2.435       .  S
O1794      C1796   1.287       .  A
O1795     Zr1809   2.399       .  S
O1795      C2504   1.282       .  A
C1796      O2503   1.284       .  A
C1796      C2042   1.476       .  S
O1797     Zr1806   2.437       .  S
O1797      C1799   1.287       .  A
O1798      C1799   1.289       .  A
C1799      C2028   1.497       .  S
O1800     Zr1803   2.445       .  S
O1800      C1802   1.290       .  A
O1801     Zr2517   2.423       .  S
O1801      C1802   1.286       .  A
C1802      C2101   1.491       .  S
Zr1803     O1804   2.433       .  S
Zr1803     O1811   2.372       .  S
Zr1803     O1812   2.370       .  S
O1804      H1824   0.990       .  S
O1804      H1829   0.990       .  S
O1805      H1825   0.990       .  S
Zr1806     O1807   2.436       .  S
Zr1806     O2516   2.435       .  S
Zr1806     O1812   2.371       .  S
Zr1806     O1811   2.369       .  S
Zr1806     O2524   2.370       .  S
Zr1806     O2522   2.371       .  S
O1807      H1823   0.990       .  S
O1808     Zr2514   2.438       .  S
O1808      H1822   0.990       .  S
O1808      H1832   0.990       .  S
Zr1809     O2509   2.417   1_545  S
Zr1809     O2520   2.372   1_545  S
Zr1809     O1814   2.384       .  S
Zr1810     O2483   2.416       .  S
Zr1810     O2498   2.387       .  S
Zr1810     O1813   2.383       .  S
O1811      H1819   0.965       .  S
O1812     Zr2517   2.379       .  S
O1813     Zr2491   2.369       .  S
O1814     Zr2514   2.367       .  S
O1814      H1818   0.965       .  S
O1815     Zr2491   2.370       .  S
O1815      H1820   0.965       .  S
O1816     Zr2514   2.368       .  S
O1833     Zr1845   2.427   1_655  S
O1833      C1835   1.285       .  A
O1834     Zr1871   2.413       .  S
C1835      C2115   1.480       .  S
O1836     Zr1848   2.437       .  S
O1836      C1838   1.288       .  A
O1837     Zr1872   2.423   1_655  S
O1837      C1838   1.286       .  A
C1838      C1958   1.483       .  S
O1839     Zr1848   2.447       .  S
O1839      C1841   1.290       .  A
O1840      C1841   1.286       .  A
C1841      C1972   1.488       .  S
O1842     Zr1845   2.436       .  S
O1842      C1844   1.286       .  A
O1843     Zr1872   2.421       .  S
O1843      C1844   1.286       .  A
C1844      C2098   1.494       .  S
Zr1845     O1846   2.435   1_455  S
Zr1845     O1851   2.372   1_455  S
Zr1845     O1852   2.368   1_455  S
O1846      H1889   0.990       .  S
O1847      H1888   0.990       .  S
O1847      H1892   0.990       .  S
Zr1848     O1849   2.436       .  S
Zr1848     O1852   2.374       .  S
Zr1848     O1851   2.366       .  S
O1849      H1890   0.990       .  S
O1849      H1893   0.990       .  S
O1850      H1883   0.990       .  S
O1852     Zr1872   2.383   1_655  S
O1852      H1879   0.966       .  S
O1853      C1855   1.286       .  A
C1855      C1986   1.476       .  S
O1856     Zr1868   2.435       .  S
O1856      C1858   1.287       .  A
O1857      C1858   1.288       .  A
C1858      C2070   1.487       .  S
O1859     Zr1868   2.443       .  S
O1859      C1861   1.289       .  A
C1861      C2087   1.491       .  S
O1862     Zr1865   2.438       .  S
O1863     Zr1871   2.433       .  S
C1864      C2003   1.490       .  S
Zr1865     O1867   2.435       .  S
Zr1865     O1877   2.370       .  S
Zr1865     O1875   2.371       .  S
O1866      H1886   0.990       .  S
O1866      H1891   0.990       .  S
O1867      H1887   0.990       .  S
Zr1868     O1869   2.434       .  S
Zr1868     O1874   2.374       .  S
Zr1868     O1873   2.370       .  S
O1869      H1885   0.990       .  S
O1870      H1884   0.990       .  S
O1870      H1894   0.990       .  S
Zr1871     O1877   2.386       .  S
O1873      H1881   0.965       .  S
O1876      H1880   0.967       .  S
O1877      H1882   0.967       .  S
O1895     Zr1907   2.435       .  S
O1895      C1897   1.288       .  A
O1896     Zr2641   2.423   1_545  S
O1896      C1897   1.287       .  A
C1897      C1975   1.484       .  S
O1898     Zr1910   2.435       .  S
O1898      C2608   1.287       .  A
O1899     Zr1934   2.417       .  S
O1899      C1900   1.285       .  A
C1900      O2606   1.286       .  A
C1900      C2045   1.482       .  S
O1901     Zr1910   2.426       .  S
O1901      C2611   1.286       .  A
O1902     Zr1933   2.411       .  S
O1902      C2611   1.284       .  A
C1903      O2609   1.288   1_565  A
C1903      O2610   1.286       .  A
C1903      C2059   1.488       .  S
O1904     Zr1907   2.453       .  S
O1904      C1906   1.291       .  A
O1905     Zr1934   2.410       .  S
O1905      C1906   1.283       .  A
C1906      C2000   1.489       .  S
Zr1907     O1908   2.435       .  S
Zr1907     O1913   2.380       .  S
Zr1907     O1914   2.368       .  S
O1908      H1951   0.990       .  S
O1909      H1950   0.990       .  S
O1909      H1954   0.990       .  S
Zr1910     O2619   2.435       .  S
Zr1910     O1912   2.435       .  S
Zr1910     O2622   2.367       .  S
Zr1910     O2621   2.371       .  S
Zr1910     O1938   2.373       .  S
Zr1910     O1940   2.370       .  S
O1911     Zr2618   2.435       .  S
O1911      H1952   0.990       .  S
O1911      H1955   0.990       .  S
O1912      H1945   0.990       .  S
O1913     Zr2618   2.366       .  S
O1913     Zr2641   2.382   1_545  S
O1914     Zr2618   2.373       .  S
O1914     Zr1934   2.380       .  S
O1914      H1941   0.964       .  S
O1915     Zr1927   2.446   1_545  S
O1915      C2625   1.291       .  A
O1916      C2625   1.284       .  A
C1917      O2623   1.289       .  A
C1917      O2624   1.287       .  A
C1917      C2031   1.495       .  S
O1918     Zr1930   2.447       .  S
O1919     Zr1933   2.424       .  S
C1920      C1961   1.489       .  S
O1921     Zr1930   2.442       .  S
O1922     Zr2642   2.416       .  S
C1923      C1989   1.478       .  S
O1924     Zr1927   2.450       .  S
O1924      C2634   1.291       .  A
O1925      C1926   1.284       .  A
C1926      O2632   1.288       .  A
C1926      C2014   1.481       .  S
Zr1927     O2636   2.438       .  S
Zr1927     O1929   2.437   1_565  S
Zr1927     O2643   2.368       .  S
Zr1927     O2644   2.371       .  S
Zr1927     O1939   2.372   1_565  S
Zr1927     O1937   2.373   1_565  S
O1928     Zr2635   2.436       .  S
O1928      H1948   0.991       .  S
O1928      H1953   0.990       .  S
O1929      H1949   0.990       .  S
Zr1930     O1932   2.436       .  S
Zr1930     O1940   2.373       .  S
Zr1930     O1938   2.370       .  S
O1931      H1947   0.990       .  S
O1932      H1946   0.990       .  S
O1932      H1956   0.990       .  S
Zr1933     O2604   2.428       .  S
Zr1933     O2621   2.379       .  S
Zr1933     O1938   2.384       .  S
Zr1933     O2293   2.385       .  S
Zr1934     O2630   2.409   1_545  S
Zr1934     O2289   2.383   1_545  S
Zr1934     O2648   2.381   1_545  S
O1935     Zr2635   2.370       .  S
O1935     Zr2288   2.384   1_556  S
O1935      H1943   0.966       .  S
O1936     Zr2635   2.373       .  S
O1938      H1942   0.965       .  S
O1939     Zr2287   2.389   1_546  S
O1939      H1944   0.966       .  S
O1940     Zr2642   2.379       .  S
C1957      C1958   1.404       .  A
C1957      C1962   1.399       .  A
C1957      H1964   1.084       .  S
C1959      C1960   1.410       .  A
C1959      N1966   1.437       .  S
C1960      C1961   1.407       .  A
C1960      H1965   1.084       .  S
C1962      N1963   1.433       .  S
N1963      H1967   1.046       .  S
N1963      H1968   1.046       .  S
N1966      H1969   1.046       .  S
N1966      H1970   1.046       .  S
C1971      C1976   1.404       .  A
C1971      H1978   1.084       .  S
C1972      C1973   1.414       .  A
C1973      C1974   1.403       .  A
C1973      N1980   1.438       .  S
C1974      C1975   1.405       .  A
C1974      H1979   1.084       .  S
C1976      N1977   1.438       .  S
N1977      H1981   1.046       .  S
N1977      H1982   1.046       .  S
N1980      H1983   1.046       .  S
N1980      H1984   1.046       .  S
C1985      C1986   1.403   1_556  A
C1985      C1990   1.403       .  A
C1986      C1987   1.413       .  A
C1987      C1988   1.401       .  A
C1987      N1994   1.439       .  S
C1988      C1989   1.403       .  A
C1988      H1993   1.084       .  S
C1989      C1990   1.414   1_554  A
N1994      H1997   1.046       .  S
C1999      C2000   1.405       .  A
C1999      H2006   1.084       .  S
C2000      C2001   1.419       .  A
C2001      C2002   1.407       .  A
C2001      N2008   1.438       .  S
C2002      H2007   1.083       .  S
C2003      C2004   1.413       .  A
C2004      N2005   1.433       .  S
N2008      H2011   1.045       .  S
C2013      C2722   1.402   1_545  A
C2013      C2018   1.393       .  A
C2013      H2020   1.084       .  S
C2014      C2721   1.402       .  A
C2014      C2015   1.415       .  A
C2015      C2016   1.409       .  A
C2015      N2022   1.438       .  S
C2016      C2725   1.406       .  A
C2016      H2021   1.084       .  S
C2017      C2724   1.406       .  A
C2017      C2018   1.419   1_565  A
C2018      N2019   1.433       .  S
N2019      H2023   1.045       .  S
N2019      H2024   1.045       .  S
N2022      H2025   1.045       .  S
N2022      H2026   1.046       .  S
C2027      C2028   1.408       .  A
C2027      C2032   1.408       .  A
C2027      H2034   1.083       .  S
C2028      C2029   1.417       .  A
C2029      C2030   1.402       .  A
C2029      N2744   1.434       .  S
C2030      C2031   1.406       .  A
C2030      H2743   1.084       .  S
C2031      C2032   1.414       .  A
C2032      N2033   1.432       .  S
N2033      H2037   1.045       .  S
N2033      H2038   1.046       .  S
H2035      C2738   1.084       .  S
N2036      C2737   1.433   1_565  S
N2036      H2747   1.046       .  S
N2036      H2748   1.046   1_565  S
H2039      N2744   1.046       .  S
H2040      N2744   1.046       .  S
C2041      C2750   1.401       .  A
C2041      C2046   1.397       .  A
C2041      H2048   1.084       .  S
C2042      C2749   1.404       .  A
C2042      C2043   1.413       .  A
C2043      C2044   1.404       .  A
C2043      N2050   1.439       .  S
C2044      C2753   1.404       .  A
C2044      H2049   1.084       .  S
C2045      C2752   1.406   1_545  A
C2045      C2046   1.415       .  A
C2046      N2047   1.438       .  S
N2047      H2051   1.046       .  S
N2047      H2052   1.045       .  S
N2050      H2053   1.046       .  S
N2050      H2054   1.046       .  S
C2055      C2056   1.406       .  A
C2055      C2060   1.403       .  A
C2055      H2062   1.083       .  S
C2056      C2765   1.417   1_565  A
C2057      C2764   1.414       .  A
C2057      C2058   1.404       .  A
C2057      N2064   1.439       .  S
C2058      C2767   1.405       .  A
C2058      H2063   1.084       .  S
C2059      C2766   1.406   1_565  A
C2059      C2060   1.415       .  A
C2060      N2061   1.439       .  S
N2061      H2065   1.045       .  S
N2061      H2066   1.046       .  S
N2064      H2775   1.046       .  S
N2064      H2068   1.046       .  S
H2067      N2772   1.046       .  S
C2069      C2074   1.407       .  A
C2069      H2076   1.084       .  S
C2070      C2071   1.415       .  A
C2071      C2072   1.403       .  A
C2071      N2078   1.438       .  S
C2072      H2077   1.084       .  S
C2073      C2074   1.415       .  A
C2074      N2075   1.437       .  S
N2075      H2079   1.046       .  S
N2075      H2080   1.045       .  S
N2078      H2081   1.045       .  S
N2078      H2082   1.046       .  S
C2083      C2088   1.403       .  A
C2083      H2090   1.084       .  S
C2084      C2085   1.416       .  A
C2085      C2086   1.404       .  A
C2085      N2092   1.438       .  S
C2086      C2087   1.405       .  A
C2086      H2091   1.083       .  S
C2088      N2089   1.438       .  S
N2089      H2093   1.046       .  S
N2089      H2094   1.045       .  S
N2092      H2095   1.046       .  S
N2092      H2096   1.045       .  S
C2097      C2098   1.407   1_655  A
C2097      H2104   1.083       .  S
C2098      C2099   1.418       .  A
C2099      N2106   1.438       .  S
C2100      C2101   1.406       .  A
C2100      H2105   1.084       .  S
C2101      C2102   1.415       .  A
C2102      N2103   1.433       .  S
N2103      H2107   1.046       .  S
N2103      H2108   1.046       .  S
N2106      H2109   1.046   1_455  S
N2106      H2110   1.046       .  S
C2111      C2112   1.403       .  A
C2111      C2116   1.400       .  A
C2111      H2118   1.084       .  S
C2113      C2114   1.405       .  A
C2113      N2120   1.439       .  S
C2114      H2119   1.084       .  S
C2115      C2116   1.414       .  A
C2116      N2117   1.439       .  S
N2117      H2121   1.046       .  S
N2117      H2122   1.045       .  S
N2120      H2123   1.046       .  S
N2120      H2124   1.046       .  S
O2125     Zr2137   2.439       .  S
O2125      C2127   1.288       .  A
O2126      C2127   1.284       .  A
C2127      C2410   1.482       .  S
O2128     Zr2140   2.454       .  S
O2128      C2130   1.291       .  A
O2129      C2130   1.285   1_455  A
C2130      C2427   1.487       .  S
O2131     Zr2140   2.451       .  S
O2131      C2133   1.291       .  A
O2132     Zr2163   2.418       .  S
C2133      C2466   1.487       .  S
O2134     Zr2137   2.419       .  S
O2134      C2136   1.282       .  A
O2135     Zr2164   2.423   1_655  S
C2136      C2371   1.480       .  S
Zr2137     O2138   2.433       .  S
Zr2137     O2143   2.365       .  S
Zr2137     O2144   2.375       .  S
O2138      H2181   0.990       .  S
O2139      H2180   0.991       .  S
O2139      H2184   0.990       .  S
Zr2140     O2141   2.435       .  S
Zr2140     O2144   2.368       .  S
Zr2140     O2143   2.373       .  S
O2141      H2182   0.991       .  S
O2141      H2185   0.990       .  S
O2142      H2175   0.990       .  S
O2144      H2171   0.966       .  S
O2145     Zr2157   2.427       .  S
O2145      C2147   1.285       .  A
O2146     Zr2164   2.424   1_655  S
C2147      C2438   1.481       .  S
O2148     Zr2160   2.433       .  S
O2148      C2150   1.288       .  A
O2149     Zr2163   2.402       .  S
C2150      C2396   1.474       .  S
O2151     Zr2160   2.434       .  S
O2151      C2153   1.286       .  A
O2152      C2153   1.288       .  A
C2153      C2382   1.490       .  S
O2154     Zr2157   2.433       .  S
O2154      C2156   1.287       .  A
O2155      C2156   1.284       .  A
C2156      C2455   1.480       .  S
Zr2157     O2158   2.434       .  S
Zr2157     O2165   2.371       .  S
Zr2157     O2166   2.367       .  S
O2158      H2178   0.990       .  S
O2158      H2183   0.990       .  S
O2159      H2179   0.990       .  S
Zr2160     O2161   2.436       .  S
Zr2160     O2166   2.370       .  S
Zr2160     O2165   2.367       .  S
O2161      H2177   0.989       .  S
O2162      H2176   0.990       .  S
O2162      H2186   0.990       .  S
Zr2163     O2168   2.384       .  S
Zr2164     O2167   2.386   1_455  S
O2165      H2173   0.966       .  S
O2168      H2172   0.965       .  S
O2169      H2174   0.966       .  S
O2187     Zr2199   2.438   1_655  S
O2187      C2189   1.288       .  A
O2188     Zr2225   2.427       .  S
C2189      C2469   1.488       .  S
O2190     Zr2202   2.435       .  S
O2190      C2192   1.288       .  A
O2191     Zr2226   2.430   1_655  S
O2191      C2192   1.288       .  A
C2192      C2312   1.487       .  S
O2193     Zr2202   2.439       .  S
O2193      C2195   1.288       .  A
O2194      C2195   1.288       .  A
C2195      C2326   1.492       .  S
O2196     Zr2199   2.442       .  S
O2196      C2198   1.289       .  A
O2197     Zr2226   2.419       .  S
O2197      C2198   1.286       .  A
C2198      C2452   1.489       .  S
Zr2199     O2200   2.432   1_455  S
Zr2199     O2205   2.369   1_455  S
Zr2199     O2206   2.368   1_455  S
O2200      H2243   0.990       .  S
O2201      H2242   0.990       .  S
O2201      H2246   0.990       .  S
Zr2202     O2203   2.436       .  S
Zr2202     O2558   2.437   1_554  S
Zr2202     O2206   2.369       .  S
Zr2202     O2205   2.368       .  S
Zr2202     O2584   2.373   1_554  S
Zr2202     O2586   2.371   1_554  S
O2203      H2244   0.990       .  S
O2203      H2247   0.990       .  S
O2204     Zr2556   2.433       .  S
O2204      H2237   0.990       .  S
O2206     Zr2226   2.381   1_655  S
O2206      H2233   0.965       .  S
O2207     Zr2573   2.436       .  S
O2207      C2209   1.288       .  A
O2208      C2563   1.287       .  A
C2209      O2562   1.284       .  A
C2209      C2340   1.479       .  S
O2210     Zr2222   2.441       .  S
O2210      C2212   1.288       .  A
O2211     Zr2579   2.423       .  S
O2211      C2212   1.286       .  A
C2212      C2424   1.477       .  S
O2213     Zr2222   2.425       .  S
O2213      C2215   1.286       .  A
O2214     Zr2580   2.411   1_655  S
C2215      C2441   1.479       .  S
O2216     Zr2219   2.436       .  S
O2216      C2572   1.287   1_556  A
O2217     Zr2225   2.439       .  S
O2217      C2572   1.290       .  A
C2218      O2570   1.285       .  A
C2218      O2571   1.290       .  A
C2218      C2357   1.491       .  S
Zr2219     O2561   2.442   1_556  S
Zr2219     O2574   2.434       .  S
Zr2219     O2221   2.435   1_556  S
Zr2219     O2581   2.368       .  S
Zr2219     O2582   2.369       .  S
Zr2219     O2231   2.371   1_556  S
Zr2219     O2229   2.369   1_556  S
O2220     Zr2573   2.437       .  S
O2220      H2240   0.989       .  S
O2220      H2245   0.991       .  S
O2221      H2241   0.990       .  S
Zr2222     O2223   2.434       .  S
Zr2222     O2228   2.365       .  S
Zr2222     O2227   2.370       .  S
O2223      H2239   0.990       .  S
O2224      H2238   0.990       .  S
O2224      H2248   0.990       .  S
Zr2225     O2565   2.433   1_554  S
Zr2225     O2582   2.386   1_554  S
Zr2225     O2231   2.386       .  S
Zr2226     O2568   2.417   1_454  S
Zr2226     O2586   2.380   1_454  S
O2227     Zr2573   2.367       .  S
O2227      H2235   0.966       .  S
O2228     Zr2573   2.368       .  S
O2228     Zr2579   2.376       .  S
O2230     Zr2556   2.370       .  S
O2230      H2234   0.967       .  S
O2231      H2236   0.966       .  S
O2232     Zr2556   2.371       .  S
O2232     Zr2580   2.377   1_655  S
O2249     Zr2261   2.434       .  S
O2249      C2251   1.287       .  A
O2250      C2251   1.286       .  A
C2251      C2329   1.489       .  S
O2252     Zr2264   2.436       .  S
O2253     Zr2288   2.414       .  S
O2253      C2254   1.285       .  A
C2254      C2399   1.475       .  S
O2255     Zr2264   2.446       .  S
O2256     Zr2287   2.422   1_545  S
C2257      C2413   1.481       .  S
O2258     Zr2261   2.447       .  S
O2258      C2260   1.291       .  A
O2259     Zr2288   2.415       .  S
O2259      C2260   1.284       .  A
C2260      C2354   1.486       .  S
Zr2261     O2262   2.433       .  S
Zr2261     O2617   2.435   1_554  S
Zr2261     O2267   2.368       .  S
Zr2261     O2268   2.362       .  S
Zr2261     O2645   2.372   1_554  S
Zr2261     O2647   2.375   1_554  S
O2262      H2305   0.990       .  S
O2263     Zr2615   2.435       .  S
O2263      H2304   0.990       .  S
O2263      H2308   0.990       .  S
Zr2264     O2266   2.436   1_545  S
Zr2264     O2292   2.365   1_545  S
Zr2264     O2294   2.370   1_545  S
O2265      H2306   0.990       .  S
O2265      H2309   0.990       .  S
O2266      H2299   0.990       .  S
O2268     Zr2288   2.384       .  S
O2268      H2295   0.964       .  S
O2269     Zr2281   2.451       .  S
O2270     Zr2642   2.411       .  S
C2271      C2385   1.488       .  S
O2272     Zr2284   2.433       .  S
O2272      C2628   1.287       .  A
O2273     Zr2287   2.435       .  S
O2273      C2628   1.289       .  A
C2274      O2626   1.288       .  A
C2274      O2627   1.290       .  A
C2274      C2315   1.499       .  S
O2275     Zr2284   2.432       .  S
O2275      C2631   1.287       .  A
O2276      C2631   1.286       .  A
C2277      O2629   1.286       .  A
C2277      O2630   1.283       .  A
C2277      C2343   1.478       .  S
O2278     Zr2281   2.435       .  S
O2279     Zr2641   2.406       .  S
O2279      C2280   1.282       .  A
C2280      C2368   1.479       .  S
Zr2281     O2283   2.435       .  S
Zr2281     O2293   2.376       .  S
Zr2281     O2291   2.371       .  S
O2282      H2302   0.990       .  S
O2282      H2307   0.990       .  S
O2283      H2303   0.990       .  S
Zr2284     O2639   2.432   1_554  S
Zr2284     O2286   2.434       .  S
Zr2284     O2644   2.369   1_554  S
Zr2284     O2643   2.372   1_554  S
Zr2284     O2294   2.370       .  S
Zr2284     O2292   2.365       .  S
O2285     Zr2638   2.434       .  S
O2285      H2301   0.990       .  S
O2286      H2300   0.990       .  S
O2286      H2310   0.990       .  S
Zr2287     O2633   2.408   1_554  S
Zr2287     O2644   2.380   1_554  S
Zr2287     O2292   2.376       .  S
Zr2288     O2624   2.429   1_554  S
Zr2288     O2645   2.378   1_554  S
O2289     Zr2638   2.367       .  S
O2289      H2297   0.965       .  S
O2290     Zr2638   2.364       .  S
O2290     Zr2641   2.378       .  S
O2291     Zr2615   2.373       .  S
O2291     Zr2642   2.381       .  S
O2292      H2296   0.966       .  S
O2293     Zr2615   2.370       .  S
O2293      H2298   0.965       .  S
C2311      C2312   1.405   1_556  A
C2311      C2316   1.400       .  A
C2311      H2318   1.084       .  S
C2312      C2667   1.415       .  A
C2313      C2666   1.418       .  A
C2313      C2314   1.410       .  A
C2313      N2320   1.437       .  S
C2314      C2315   1.407       .  A
C2314      H2319   1.083       .  S
C2315      C2670   1.416       .  A
C2316      C2669   1.413   1_556  A
C2316      N2317   1.433       .  S
N2317      H2321   1.046       .  S
N2317      H2322   1.046       .  S
N2320      H2323   1.044       .  S
N2320      H2324   1.046       .  S
C2325      C2680   1.405       .  A
C2325      C2330   1.408       .  A
C2325      H2332   1.084       .  S
C2326      C2679   1.407   1_554  A
C2326      C2327   1.416       .  A
C2327      C2328   1.404       .  A
C2327      N2334   1.439       .  S
C2328      C2329   1.406       .  A
C2328      H2333   1.084       .  S
C2329      C2684   1.416   1_554  A
C2330      C2683   1.415       .  A
C2330      N2331   1.439       .  S
N2331      H2335   1.046       .  S
N2331      H2336   1.046       .  S
N2334      H2337   1.046       .  S
N2334      H2338   1.046       .  S
C2339      C2340   1.406       .  A
C2339      C2344   1.403       .  A
C2339      H2700   1.082       .  S
C2340      C2341   1.412       .  A
C2341      C2342   1.399       .  A
C2341      N2348   1.439       .  S
C2342      C2343   1.405       .  A
C2342      H2347   1.084       .  S
C2343      C2344   1.414       .  A
C2344      N2699   1.439       .  S
N2345      C2698   1.438       .  S
N2345      H2703   1.046       .  S
N2345      H2704   1.046       .  S
H2346      C2693   1.081       .  S
N2348      H2351   1.046       .  S
N2348      H2706   1.046       .  S
H2349      N2699   1.046       .  S
H2350      N2699   1.046       .  S
H2352      N2702   1.046       .  S
C2353      C2354   1.403   1_556  A
C2353      C2712   1.399       .  A
C2353      H2360   1.084       .  S
C2354      C2355   1.418       .  A
C2355      C2356   1.410       .  A
C2355      N2362   1.439       .  S
C2356      C2711   1.406       .  A
C2356      H2361   1.084       .  S
C2357      C2710   1.404       .  A
C2357      C2358   1.415       .  A
C2358      C2707   1.401       .  A
C2358      N2359   1.433       .  S
N2359      H2717   1.046       .  S
N2359      H2718   1.046       .  S
N2362      H2365   1.045       .  S
N2362      H2720   1.046       .  S
H2363      N2713   1.046       .  S
H2364      N2713   1.046       .  S
H2366      N2716   1.046       .  S
C2367      C2372   1.390       .  A
C2367      H2374   1.084       .  S
C2368      C2369   1.416       .  A
C2369      C2370   1.409       .  A
C2369      N2376   1.439       .  S
C2370      H2375   1.084       .  S
C2371      C2372   1.418       .  A
C2372      N2373   1.433       .  S
N2373      H2377   1.044       .  S
N2373      H2378   1.045       .  S
N2376      H2379   1.045       .  S
N2376      H2380   1.045       .  S
C2381      C2382   1.406   1_545  A
C2381      C2386   1.406       .  A
C2381      H2388   1.083       .  S
C2382      C2383   1.415       .  A
C2383      C2384   1.400       .  A
C2384      C2385   1.403       .  A
C2385      C2386   1.415   1_565  A
C2386      N2387   1.433       .  S
N2387      H2391   1.046       .  S
N2387      H2392   1.046       .  S
C2395      C2400   1.399       .  A
C2395      H2402   1.084       .  S
C2396      C2397   1.414       .  A
C2397      C2398   1.405       .  A
C2397      N2404   1.439       .  S
C2398      H2403   1.084       .  S
C2399      C2400   1.412       .  A
C2400      N2401   1.438       .  S
N2401      H2405   1.046       .  S
N2401      H2406   1.046       .  S
N2404      H2407   1.046       .  S
N2404      H2408   1.046       .  S
C2409      C2410   1.403       .  A
C2409      C2414   1.401       .  A
C2409      H2416   1.084       .  S
C2411      C2412   1.410       .  A
C2411      N2418   1.439       .  S
C2412      H2417   1.084       .  S
C2413      C2414   1.414       .  A
C2414      N2415   1.439       .  S
N2415      H2419   1.046       .  S
N2415      H2420   1.046       .  S
N2418      H2422   1.046       .  S
C2423      C2428   1.409       .  A
C2423      H2430   1.084       .  S
C2424      C2425   1.411       .  A
C2425      C2426   1.404       .  A
C2425      N2432   1.438       .  S
C2426      H2431   1.084       .  S
C2427      C2428   1.416   1_655  A
C2428      N2429   1.438       .  S
N2429      H2433   1.046       .  S
N2429      H2434   1.046       .  S
N2432      H2435   1.046       .  S
N2432      H2436   1.045       .  S
C2437      C2442   1.404       .  A
C2437      H2444   1.083       .  S
C2438      C2439   1.416       .  A
C2439      C2440   1.400       .  A
C2439      N2446   1.439       .  S
C2440      C2441   1.404       .  A
C2440      H2445   1.084       .  S
C2442      N2443   1.437       .  S
N2443      H2447   1.046       .  S
N2443      H2448   1.045       .  S
N2446      H2449   1.045       .  S
N2446      H2450   1.046       .  S
C2451      C2452   1.407   1_655  A
C2451      H2458   1.083       .  S
C2452      C2453   1.413       .  A
C2453      N2460   1.432       .  S
C2454      C2455   1.405       .  A
C2454      H2459   1.084       .  S
C2455      C2456   1.412       .  A
C2456      N2457   1.433       .  S
N2457      H2461   1.046       .  S
N2457      H2462   1.046       .  S
N2460      H2463   1.045       .  S
N2460      H2464   1.046       .  S
C2465      C2466   1.403       .  A
C2465      C2470   1.402       .  A
C2465      H2472   1.084       .  S
C2467      C2468   1.406       .  A
C2467      N2474   1.438       .  S
C2468      H2473   1.083       .  S
C2469      C2470   1.415       .  A
C2470      N2471   1.438       .  S
N2471      H2475   1.046       .  S
N2471      H2476   1.046       .  S
N2474      H2477   1.046       .  S
N2474      H2478   1.046       .  S
O2479     Zr2491   2.437       .  S
O2479      C2481   1.288       .  A
O2480      C2481   1.283       .  A
C2481      C2764   1.476       .  S
O2482     Zr2494   2.430       .  S
O2482      C2484   1.287       .  A
O2483      C2484   1.285       .  A
C2484      C2781   1.478       .  S
O2485     Zr2494   2.440       .  S
O2485      C2487   1.288       .  A
O2486     Zr2517   2.413       .  S
C2487      C2820   1.476       .  S
O2488     Zr2491   2.430       .  S
O2488      C2490   1.285       .  A
O2489     Zr2518   2.431   1_655  S
C2490      C2725   1.483       .  S
Zr2491     O2492   2.436       .  S
Zr2491     O2497   2.366       .  S
Zr2491     O2498   2.367       .  S
O2492      H2535   0.990       .  S
O2493      H2534   0.990       .  S
O2493      H2538   0.990       .  S
Zr2494     O2495   2.440       .  S
Zr2494     O2498   2.366       .  S
Zr2494     O2497   2.365       .  S
O2495      H2536   0.990       .  S
O2495      H2539   0.989       .  S
O2496      H2529   0.990       .  S
O2498      H2525   0.965       .  S
O2499     Zr2511   2.423       .  S
O2499      C2501   1.285       .  A
O2500     Zr2518   2.422   1_655  S
C2501      C2792   1.482       .  S
O2502     Zr2514   2.434       .  S
O2502      C2504   1.288       .  A
O2503     Zr2517   2.412       .  S
C2504      C2750   1.478       .  S
O2505     Zr2514   2.437       .  S
O2505      C2507   1.287       .  A
O2506      C2507   1.288       .  A
C2507      C2736   1.494       .  S
O2508     Zr2511   2.437       .  S
O2508      C2510   1.288       .  A
O2509      C2510   1.284       .  A
C2510      C2809   1.485       .  S
Zr2511     O2512   2.436       .  S
Zr2511     O2519   2.372       .  S
Zr2511     O2520   2.358       .  S
O2512      H2532   0.990       .  S
O2512      H2537   0.990       .  S
O2513      H2533   0.990       .  S
Zr2514     O2515   2.435   1_545  S
Zr2514     O2520   2.366   1_545  S
Zr2514     O2519   2.367   1_545  S
O2515      H2531   0.990       .  S
O2516      H2530   0.990       .  S
O2516      H2540   0.990       .  S
Zr2517     O2522   2.386       .  S
Zr2518     O2521   2.384   1_455  S
O2519      H2527   0.965       .  S
O2522      H2526   0.965       .  S
O2523      H2528   0.966       .  S
O2541     Zr2553   2.433   1_655  S
O2541      C2543   1.287       .  A
O2542     Zr2579   2.412       .  S
C2543      C2823   1.477       .  S
O2544     Zr2556   2.440       .  S
O2544      C2546   1.289       .  A
O2545     Zr2580   2.433   1_655  S
O2545      C2546   1.288       .  A
C2546      C2666   1.499       .  S
O2547     Zr2556   2.445       .  S
O2547      C2549   1.289       .  A
O2548      C2549   1.287       .  A
C2549      C2680   1.486       .  S
O2550     Zr2553   2.437       .  S
O2550      C2552   1.287       .  A
O2551     Zr2580   2.412       .  S
O2551      C2552   1.285       .  A
C2552      C2806   1.480       .  S
Zr2553     O2554   2.435   1_455  S
Zr2553     O2559   2.372   1_455  S
Zr2553     O2560   2.373   1_455  S
O2554      H2597   0.990       .  S
O2555      H2596   0.990       .  S
O2555      H2600   0.991       .  S
Zr2556     O2557   2.436       .  S
Zr2556     O2560   2.371       .  S
Zr2556     O2559   2.365       .  S
O2557      H2598   0.990       .  S
O2557      H2601   0.990       .  S
O2558      H2591   0.990       .  S
O2560     Zr2580   2.385   1_655  S
O2560      H2587   0.965       .  S
O2561      C2563   1.289       .  A
C2563      C2694   1.485       .  S
O2564     Zr2576   2.428       .  S
O2564      C2566   1.286       .  A
O2565      C2566   1.289       .  A
C2566      C2778   1.484       .  S
O2567     Zr2576   2.441       .  S
O2567      C2569   1.288       .  A
C2569      C2795   1.484       .  S
O2570     Zr2573   2.430       .  S
O2571     Zr2579   2.439       .  S
C2572      C2711   1.488       .  S
Zr2573     O2575   2.437       .  S
Zr2573     O2585   2.374       .  S
Zr2573     O2583   2.373       .  S
O2574      H2594   0.990       .  S
O2574      H2599   0.990       .  S
O2575      H2595   0.990       .  S
Zr2576     O2577   2.436       .  S
Zr2576     O2582   2.373       .  S
Zr2576     O2581   2.368       .  S
O2577      H2593   0.990       .  S
O2578      H2592   0.990       .  S
O2578      H2602   0.990       .  S
Zr2579     O2585   2.385       .  S
O2581      H2589   0.966       .  S
O2584      H2588   0.966       .  S
O2585      H2590   0.967       .  S
O2603     Zr2615   2.449       .  S
O2603      C2605   1.290       .  A
O2604      C2605   1.287       .  A
C2605      C2683   1.488       .  S
O2606     Zr2618   2.431       .  S
O2607     Zr2642   2.410       .  S
O2607      C2608   1.284       .  A
C2608      C2753   1.475       .  S
O2609     Zr2618   2.440       .  S
O2610     Zr2641   2.423       .  S
C2611      C2767   1.474       .  S
O2612     Zr2615   2.451       .  S
O2612      C2614   1.291       .  A
O2613     Zr2642   2.412       .  S
O2613      C2614   1.283       .  A
C2614      C2708   1.492       .  S
Zr2615     O2616   2.434       .  S
Zr2615     O2621   2.374       .  S
Zr2615     O2622   2.370       .  S
O2616      H2659   0.990       .  S
O2617      H2658   0.990       .  S
O2617      H2662   0.990       .  S
Zr2618     O2620   2.434   1_545  S
Zr2618     O2646   2.372   1_545  S
Zr2618     O2648   2.374   1_545  S
O2619      H2660   0.990       .  S
O2619      H2663   0.990       .  S
O2620      H2653   0.990       .  S
O2622     Zr2642   2.382       .  S
O2622      H2649   0.964       .  S
O2623     Zr2635   2.442       .  S
C2625      C2739   1.492       .  S
O2626     Zr2638   2.440       .  S
O2627     Zr2641   2.437       .  S
C2628      C2669   1.489       .  S
O2629     Zr2638   2.427       .  S
C2631      C2697   1.484       .  S
O2632     Zr2635   2.437       .  S
O2633      C2634   1.282       .  A
C2634      C2722   1.481       .  S
Zr2635     O2637   2.435       .  S
Zr2635     O2647   2.374       .  S
Zr2635     O2645   2.368       .  S
O2636      H2656   0.990       .  S
O2636      H2661   0.990       .  S
O2637      H2657   0.990       .  S
Zr2638     O2640   2.435       .  S
Zr2638     O2648   2.374       .  S
Zr2638     O2646   2.369       .  S
O2639      H2655   0.990       .  S
O2640      H2654   0.990       .  S
O2640      H2664   0.990       .  S
Zr2641     O2646   2.377       .  S
O2643      H2651   0.965       .  S
O2646      H2650   0.965       .  S
O2647      H2652   0.965       .  S
C2665      C2666   1.407       .  A
C2665      C2670   1.404       .  A
C2665      H2672   1.084       .  S
C2667      C2668   1.409       .  A
C2667      N2674   1.437       .  S
C2668      C2669   1.406       .  A
C2668      H2673   1.083       .  S
C2670      N2671   1.433       .  S
N2671      H2675   1.046       .  S
N2671      H2676   1.046       .  S
N2674      H2677   1.046       .  S
N2674      H2678   1.046       .  S
C2679      C2684   1.407       .  A
C2679      H2686   1.083       .  S
C2680      C2681   1.413       .  A
C2681      C2682   1.407       .  A
C2681      N2688   1.438       .  S
C2682      C2683   1.405       .  A
C2682      H2687   1.084       .  S
C2684      N2685   1.439       .  S
N2685      H2689   1.046       .  S
N2685      H2690   1.046       .  S
N2688      H2691   1.046       .  S
N2688      H2692   1.046       .  S
C2693      C2694   1.405   1_556  A
C2693      C2698   1.405       .  A
C2694      C2695   1.414       .  A
C2695      C2696   1.403       .  A
C2695      N2702   1.438       .  S
C2696      C2697   1.405       .  A
C2696      H2701   1.084       .  S
C2697      C2698   1.414   1_554  A
N2702      H2705   1.046       .  S
C2707      C2708   1.405       .  A
C2707      H2714   1.084       .  S
C2708      C2709   1.420       .  A
C2709      C2710   1.408       .  A
C2709      N2716   1.438       .  S
C2710      H2715   1.083       .  S
C2711      C2712   1.413   1_554  A
C2712      N2713   1.433       .  S
N2716      H2719   1.045       .  S
C2721      C2726   1.392       .  A
C2721      H2728   1.084       .  S
C2722      C2723   1.417       .  A
C2723      C2724   1.408       .  A
C2723      N2730   1.439       .  S
C2724      H2729   1.084       .  S
C2725      C2726   1.419       .  A
C2726      N2727   1.433       .  S
N2727      H2731   1.044       .  S
N2727      H2732   1.045       .  S
N2730      H2733   1.045       .  S
N2730      H2734   1.046       .  S
C2735      C2736   1.408       .  A
C2735      C2740   1.407       .  A
C2735      H2742   1.083       .  S
C2736      C2737   1.417       .  A
C2737      C2738   1.399   1_545  A
C2738      C2739   1.404   1_565  A
C2739      C2740   1.416       .  A
C2740      N2741   1.433       .  S
N2741      H2745   1.046   1_545  S
N2741      H2746   1.046       .  S
C2749      C2754   1.401       .  A
C2749      H2756   1.084       .  S
C2750      C2751   1.415   1_545  A
C2751      C2752   1.404       .  A
C2751      N2758   1.439       .  S
C2752      H2757   1.083       .  S
C2753      C2754   1.412       .  A
C2754      N2755   1.439       .  S
N2755      H2759   1.046       .  S
N2755      H2760   1.046       .  S
N2758      H2761   1.046       .  S
N2758      H2762   1.046       .  S
C2763      C2764   1.402       .  A
C2763      C2768   1.398       .  A
C2763      H2770   1.084       .  S
C2765      C2766   1.408       .  A
C2765      N2772   1.438       .  S
C2766      H2771   1.084       .  S
C2767      C2768   1.412       .  A
C2768      N2769   1.439       .  S
N2769      H2773   1.046       .  S
N2769      H2774   1.046       .  S
N2772      H2776   1.046       .  S
C2777      C2782   1.405       .  A
C2777      H2784   1.084       .  S
C2778      C2779   1.416       .  A
C2779      C2780   1.403       .  A
C2779      N2786   1.439       .  S
C2780      H2785   1.084       .  S
C2781      C2782   1.413   1_655  A
C2782      N2783   1.438       .  S
N2783      H2787   1.046       .  S
N2783      H2788   1.046       .  S
N2786      H2789   1.046       .  S
N2786      H2790   1.046       .  S
C2791      C2796   1.403       .  A
C2791      H2798   1.084       .  S
C2792      C2793   1.416       .  A
C2793      C2794   1.402       .  A
C2793      N2800   1.439       .  S
C2794      C2795   1.403       .  A
C2794      H2799   1.084       .  S
C2796      N2797   1.438       .  S
N2797      H2801   1.046       .  S
N2797      H2802   1.046       .  S
N2800      H2803   1.046       .  S
N2800      H2804   1.046       .  S
C2805      C2806   1.404   1_655  A
C2805      H2812   1.081       .  S
C2806      C2807   1.412       .  A
C2807      N2814   1.439       .  S
C2808      C2809   1.405       .  A
C2808      H2813   1.084       .  S
C2809      C2810   1.414       .  A
C2810      N2811   1.434       .  S
N2811      H2815   1.046       .  S
N2811      H2816   1.046       .  S
N2814      H2817   1.046       .  S
N2814      H2818   1.046       .  S
C2819      C2820   1.403       .  A
C2819      C2824   1.402       .  A
C2819      H2826   1.084       .  S
C2821      C2822   1.404       .  A
C2821      N2828   1.439       .  S
C2822      H2827   1.084       .  S
C2823      C2824   1.413       .  A
C2824      N2825   1.438       .  S
N2825      H2829   1.046       .  S
N2825      H2830   1.046       .  S
N2828      H2831   1.046       .  S
N2828      H2832   1.046       .  S
