geometry optimzed in LAMMPS
_audit_creation_date              2020-11-30 
_audit_creation_method            'lammps2cif' 
_symmetry_space_group_name_H-M    'P1' 
_symmetry_Int_Tables_number       1 
_symmetry_cell_setting            triclinic 
loop_ 
_symmetry_equiv_pos_as_xyz 
  x,y,z 
_cell_length_a                    43.594951835186286 
_cell_length_b                    43.54280243400342 
_cell_length_c                    43.544369334486206 
_cell_angle_alpha                 90.03988712954495 
_cell_angle_beta                  90.01143659132718 
_cell_angle_gamma                 89.9805249510269 
loop_ 
_atom_site_label 
_atom_site_type_symbol 
_atom_site_fract_x 
_atom_site_fract_y 
_atom_site_fract_z 
_atom_site_charge 
O1          O  0.41493610  0.00207901  0.19894529    -0.75990
O2          O  0.45269393  0.00016657  0.16279159    -0.54900
C3          C  0.42432815  0.00149015  0.17090163     0.77740
O4          O  0.50329810  0.08493914  0.30267183    -0.60590
O5          O  0.50095965  0.04703255  0.33868684    -0.53620
C6          C  0.50254959  0.07543601  0.33067974     0.69750
O7          O  0.49876410  0.08516493  0.19911733    -0.75150
O8          O  0.00004986  0.04732093  0.16292247    -0.55710
C9          C  0.49896488  0.07572587  0.17106326     0.75760
O10         O  0.41487635  0.99888343  0.30242215    -0.60290
O11         O  0.45268921  0.49906182  0.33858059    -0.53410
C12         C  0.42428810  0.99878122  0.33047030     0.72350
Zr13       Zr  0.43616615  0.00011677  0.25069986     2.54710
O14         O  0.39807135  0.04096963  0.25198995    -0.80860
O15         O  0.39708144  0.46017390  0.24999501    -0.94100
Zr16       Zr  0.50094102  0.06377631  0.25083067     2.64680
O17         O  0.46076849  0.10264513  0.25198359    -0.99230
O18         O  0.04129124  0.10241100  0.24954173    -0.81290
O19         O  0.46812118  0.03241735  0.22084942    -0.84650
O20         O  0.46798617  0.03247878  0.28069800    -2.19360
O21         O  0.99765596  0.41366938  0.30227167    -0.68040
O22         O  0.50000416  0.45153387  0.33839655    -0.52600
C23         C  0.99850483  0.42313789  0.33030821     0.70730
O24         O  0.08586759  0.49743412  0.19892364    -0.60950
O25         O  0.04811260  0.99894050  0.16275067    -0.52920
C26         C  0.07648741  0.49797217  0.17086962     0.72530
O27         O  0.08589877  0.49939220  0.30232428    -0.72340
O28         O  0.04813916  0.49950783  0.33851163    -0.51020
C29         C  0.07652610  0.49954677  0.33037804     0.73920
O30         O  0.99900812  0.41370931  0.19870249    -0.67670
O31         O  0.00127962  0.45176628  0.16274938    -0.54870
C32         C  0.00010016  0.42335112  0.17075389     0.72300
Zr33       Zr  0.99956640  0.43507377  0.25051017     2.77540
O34         O  0.03992482  0.39639389  0.25041785    -0.98420
O35         O  0.45911169  0.39656774  0.24990753    -0.79240
Zr36       Zr  0.06448729  0.49880628  0.25061664     2.70070
O37         O  0.10325052  0.45858108  0.25156896    -0.80490
O38         O  0.10271700  0.03952170  0.24933221    -0.99570
Zr39       Zr  0.00042692  0.99949440  0.19145722     2.21500
Zr40       Zr  0.50038473  0.49934365  0.30987104     2.11130
O41         O  0.03263784  0.46630823  0.28040278    -2.48260
O42         O  0.03262208  0.46637923  0.22069360    -0.80280
O43         O  0.46738215  0.46706248  0.28055164    -0.72480
O44         O  0.03331943  0.03193070  0.22081334    -2.33430
O45         O  0.46731509  0.46712472  0.22066586    -2.29640
O46         O  0.03329261  0.03175106  0.28065703    -0.74240
H47         H  0.45552349  0.04513513  0.29397502     0.77760
H48         H  0.04599741  0.04439830  0.20758924     0.78850
H49         H  0.04512662  0.45358118  0.29357669     0.81070
H50         H  0.45457826  0.45472588  0.20740917     0.78680
H51         H  0.05698912  0.09394790  0.23545793     0.41710
H52         H  0.09687488  0.05346526  0.26632758     0.40690
H53         H  0.09365019  0.44114189  0.24058130     0.40360
H54         H  0.05226352  0.40078457  0.26899771     0.38300
H55         H  0.44179871  0.40638122  0.26088413     0.41430
H56         H  0.40165962  0.44776172  0.23149640     0.36210
H57         H  0.40766389  0.05807857  0.24051540     0.42330
H58         H  0.44884737  0.09823681  0.27081929     0.38740
H59         H  0.02920054  0.37692404  0.25515815     0.43660
H60         H  0.37783808  0.47113468  0.24490557     0.42390
H61         H  0.47169033  0.12204968  0.25656821     0.42520
H62         H  0.12188624  0.02958444  0.25641139     0.42880
O63         O  0.49764803  0.19800135  0.08655637    -0.75990
O64         O  0.99957983  0.16186385  0.04868660    -0.54900
C65         C  0.49822763  0.16995529  0.07708747     0.77740
O66         O  0.41536411  0.30191993  0.99939066    -0.60590
O67         O  0.45327206  0.33793902  0.00034543    -0.53620
C68         C  0.42485307  0.32993332  0.99971690     0.69750
O69         O  0.41456989  0.19839689  0.00192080    -0.75150
O70         O  0.45222910  0.16207664  0.00146327    -0.55710
C71         C  0.42387218  0.17031102  0.00198971     0.75760
O72         O  0.49933774  0.30157450  0.08655117    -0.60290
O73         O  0.50178737  0.33753123  0.04850562    -0.53410
C74         C  0.50048805  0.32952306  0.07691729     0.72350
Zr75       Zr  0.49991326  0.24977178  0.06519674     2.54710
O76         O  0.45992351  0.25049267  0.10418579    -0.80860
O77         O  0.04069563  0.24968664  0.10342071    -0.94280
Zr78       Zr  0.43619377  0.24998135  0.00045444     2.64680
O79         O  0.39726516  0.25060836  0.04055897    -0.99230
O80         O  0.39767452  0.24961718  0.45993267    -0.81290
O81         O  0.46742310  0.21995376  0.03333151    -0.84650
O82         O  0.46769429  0.27978873  0.03327897    -2.19360
O83         O  0.08626388  0.30092186  0.00219665    -0.68040
O84         O  0.04863954  0.33724437  0.00099271    -0.52600
C85         C  0.07690543  0.32902539  0.50172576     0.70730
O86         O  0.00318998  0.19764701  0.41527387    -0.60950
O87         O  0.00059134  0.16163795  0.45317707    -0.52920
C88         C  0.00233973  0.16963776  0.42477953     0.72530
O89         O  0.99864597  0.30113070  0.41508488    -0.72340
O90         O  0.50045546  0.33732678  0.45290801    -0.51020
C91         C  0.99915981  0.32918264  0.42451542     0.73920
O92         O  0.08561755  0.19748087  0.00100447    -0.67670
O93         O  0.04768394  0.16145997  0.00058422    -0.54870
C94         C  0.07612490  0.16948135  0.50077089     0.72300
Zr95       Zr  0.06455703  0.24931762  0.00129339     2.77540
O96         O  0.10343538  0.24887590  0.46117177    -0.98420
O97         O  0.10281426  0.24862352  0.04200465    -0.79240
Zr98       Zr  0.00063539  0.24942432  0.43654270     2.70070
O99         O  0.04058840  0.25140004  0.39756633    -0.80490
O100        O  0.45976414  0.24694298  0.39851831    -0.99570
Zr101      Zr  0.00011541  0.19042651  0.00091101     2.21500
Zr102      Zr  0.50078632  0.30885010  0.00074676     2.11130
O103        O  0.03334606  0.27921999  0.46822017    -2.48260
O104        O  0.03302985  0.21950040  0.46842782    -0.80280
O105        O  0.03296327  0.27947469  0.03377381    -0.72480
O106        O  0.46770948  0.21970612  0.46795649    -2.33430
O107        O  0.03266665  0.21965502  0.03385439    -2.29640
O108        O  0.46806939  0.27962472  0.46797002    -0.74240
H109        H  0.45507979  0.29310131  0.04576316     0.77760
H110        H  0.45520469  0.20646286  0.45529055     0.78850
H111        H  0.04600322  0.29233489  0.45559643     0.81070
H112        H  0.04510536  0.20639108  0.04655009     0.78680
H113        H  0.40499072  0.23408951  0.44501770     0.41710
H114        H  0.44545819  0.26360381  0.40440703     0.40690
H115        H  0.05799502  0.24001491  0.40671945     0.40360
H116        H  0.09877407  0.26701475  0.44829071     0.38300
H117        H  0.09360456  0.26099151  0.05871851     0.41430
H118        H  0.05269419  0.23086062  0.09912339     0.36210
H119        H  0.44225692  0.24011897  0.09435390     0.42330
H120        H  0.40220314  0.26879197  0.05329368     0.38740
H121        H  0.12272308  0.25428514  0.47189792     0.43660
H122        H  0.03011058  0.24534773  0.12306040     0.42390
H123        H  0.37806921  0.25622989  0.02977757     0.42520
H124        H  0.46938269  0.25420470  0.37924903     0.42880
O125        O  0.30165436  0.08561453  0.00245684    -0.75990
O126        O  0.33788996  0.04788577  0.00134504    -0.54900
C127        C  0.32970108  0.07627338  0.00219965     0.77740
O128        O  0.19863803  0.49829178  0.08621049    -0.60590
O129        O  0.16254564  0.99884079  0.04834760    -0.53620
C130        C  0.17062681  0.99832403  0.07677290     0.69750
O131        O  0.30208918  0.50148663  0.08635089    -0.75150
O132        O  0.33816981  0.50061892  0.04848109    -0.55710
C133        C  0.33009708  0.00140310  0.07689525     0.75760
O134        O  0.19825087  0.08507214  0.00053498    -0.60290
O135        O  0.16232707  0.04703458  0.00026292    -0.53410
C136        C  0.17028778  0.07549662  0.00040376     0.72350
Zr137      Zr  0.25006789  0.06401743  0.00077914     2.54710
O138        O  0.24908676  0.10285792  0.04099028    -0.80860
O139        O  0.25008632  0.10242705  0.46019434    -0.94280
Zr140      Zr  0.25039160  0.49974788  0.06503324     2.64680
O141        O  0.24978016  0.04009240  0.10379378    -0.99230
O142        O  0.25117333  0.45947186  0.10379287    -0.81290
O143        O  0.28010438  0.03251239  0.03340027    -0.84650
O144        O  0.22036740  0.03229163  0.03344809    -2.19360
O145        O  0.19873703  0.00030376  0.41505668    -0.68040
O146        O  0.16262562  0.99961934  0.45288846    -0.52600
C147        C  0.17072612  0.50001776  0.42446570     0.70730
O148        O  0.30257813  0.41441950  0.99949741    -0.60950
O149        O  0.33852220  0.45241153  0.00030048    -0.52920
C150        C  0.33046910  0.42384730  0.49972552     0.72530
O151        O  0.19918795  0.41378863  0.00157980    -0.72340
O152        O  0.16294073  0.45151636  0.00098748    -0.51020
C153        C  0.17106319  0.42312616  0.50144166     0.73920
O154        O  0.30213322  0.99862340  0.41515074    -0.67670
O155        O  0.33823081  0.49954657  0.45301241    -0.54870
C156        C  0.33015181  0.49888166  0.42458783     0.72300
Zr157      Zr  0.25044012  0.99971599  0.43644769     2.77540
O158        O  0.25045848  0.45981068  0.39723199    -0.98420
O159        O  0.25116048  0.04063113  0.39839762    -0.79240
Zr160      Zr  0.25076282  0.43545616  0.00078398     2.70070
O161        O  0.24990100  0.39621583  0.46092747    -0.80490
O162        O  0.25233553  0.39759081  0.04186100    -0.99570
Zr163      Zr  0.30955059  0.49999069  0.00073056     2.21500
Zr164      Zr  0.19127437  0.99943929  0.00065726     2.11130
O165        O  0.22076970  0.46683461  0.46799275    -2.48260
O166        O  0.28041660  0.46711889  0.46806753    -0.80280
O167        O  0.22033936  0.03225993  0.46803833    -0.72480
O168        O  0.28046914  0.46718001  0.03347333    -2.33430
O169        O  0.28014901  0.03255959  0.46803725    -2.29640
O170        O  0.22064458  0.46692916  0.03339386    -0.74240
H171        H  0.20710239  0.04482321  0.04604829     0.77760
H172        H  0.29376309  0.45465113  0.04603314     0.78850
H173        H  0.20766794  0.45413468  0.45539326     0.81070
H174        H  0.29331114  0.04519044  0.45545386     0.78680
H175        H  0.26557932  0.44386315  0.09570106     0.41710
H176        H  0.23521749  0.40336336  0.05565104     0.40690
H177        H  0.26000014  0.40603751  0.44309624     0.40360
H178        H  0.23244435  0.44684223  0.40205222     0.38300
H179        H  0.23831151  0.05706303  0.40744582     0.41430
H180        H  0.26862574  0.09792222  0.44785877     0.36210
H181        H  0.25996082  0.09322370  0.05847162     0.42330
H182        H  0.23135474  0.05251639  0.09906062     0.38740
H183        H  0.24477060  0.47061997  0.37805756     0.43660
H184        H  0.25487631  0.12194869  0.47083781     0.42390
H185        H  0.24462771  0.02934713  0.12315073     0.42520
H186        H  0.24555638  0.37822108  0.03205953     0.42880
C187        C  0.38615663  0.40822900  0.49795724    -0.14050
C188        C  0.35494196  0.40013382  0.49953272     0.08100
C189        C  0.34722375  0.36898130  0.00114385    -0.14050
C190        C  0.36988422  0.34640170  0.00116311    -0.14050
C191        C  0.40109365  0.35436599  0.99956260     0.08100
C192        C  0.40894136  0.38551805  0.49796941    -0.14050
H193        H  0.39301332  0.43209462  0.49668195     0.12090
H194        H  0.32348387  0.36179882  0.00251197     0.12090
H195        H  0.36280920  0.32260453  0.00254779     0.12090
H196        H  0.43275145  0.39247638  0.49669551     0.12090
C197        C  0.36880496  0.15397910  0.00345935    -0.14050
C198        C  0.40004351  0.14597890  0.00255307     0.08100
C199        C  0.40804428  0.11467795  0.00195541    -0.14050
C200        C  0.38530562  0.09197767  0.00202570    -0.14050
C201        C  0.35406100  0.10007396  0.00269906     0.08100
C202        C  0.34615654  0.13136892  0.00353032    -0.14050
H203        H  0.36171031  0.17781021  0.00399814     0.12090
H204        H  0.43187072  0.10767300  0.00127965     0.12090
H205        H  0.39223814  0.06810237  0.00140036     0.12090
H206        H  0.32237330  0.13853477  0.00409947     0.12090
C207        C  0.09272021  0.38467577  0.50183081    -0.14050
C208        C  0.10073756  0.35337022  0.50186070     0.08100
C209        C  0.13199052  0.34538001  0.50183897    -0.14050
C210        C  0.15462971  0.36800300  0.50176022    -0.14050
C211        C  0.14670699  0.39930674  0.50169108     0.08100
C212        C  0.11545161  0.40739081  0.50174778    -0.14050
H213        H  0.06888219  0.39167438  0.50184489     0.12090
H214        H  0.13910035  0.32154726  0.50181278     0.12090
H215        H  0.17842051  0.36084046  0.50169974     0.12090
H216        H  0.10850366  0.43126941  0.50170018     0.12090
C217        C  0.09219626  0.11414126  0.49532382    -0.14050
C218        C  0.09983335  0.14504035  0.50089510     0.08100
C219        C  0.13063097  0.15260863  0.00656037    -0.14050
C220        C  0.15328546  0.13001853  0.00644204    -0.14050
C221        C  0.14580555  0.09915720  0.00066712     0.08100
C222        C  0.11497229  0.09142826  0.49520680    -0.14050
H223        H  0.06867997  0.10753025  0.49079991     0.12090
H224        H  0.13736922  0.17609408  0.01120688     0.12090
H225        H  0.17673749  0.13682904  0.01101315     0.12090
H226        H  0.10843620  0.06787835  0.49060369     0.12090
C227        C  0.40854692  0.99866619  0.38617582    -0.14050
C228        C  0.40051636  0.99848526  0.35487376     0.08100
C229        C  0.36926381  0.99822251  0.34690299    -0.14050
C230        C  0.34664319  0.49825143  0.36952205    -0.14050
C231        C  0.35455803  0.49854763  0.40081978     0.08100
C232        C  0.38581450  0.49869901  0.40890648    -0.14050
H233        H  0.43238875  0.99886834  0.39315385     0.12090
H234        H  0.36213067  0.99806953  0.32308007     0.12090
H235        H  0.32285801  0.49812507  0.36234679     0.12090
H236        H  0.39274976  0.49891255  0.43278622     0.12090
C237        C  0.15418857  0.49804725  0.36943397    -0.14050
C238        C  0.14632550  0.49995964  0.40068577     0.08100
C239        C  0.11510512  0.00167597  0.40873927    -0.14050
C240        C  0.09235209  0.00153469  0.38602158    -0.14050
C241        C  0.10032914  0.49967374  0.35476075     0.08100
C242        C  0.13154157  0.49791072  0.34682153    -0.14050
H243        H  0.17794130  0.49656396  0.36230603     0.12090
H244        H  0.10821753  0.00319771  0.43258391     0.12090
H245        H  0.06854460  0.00295197  0.39296946     0.12090
H246        H  0.13861702  0.49635788  0.32303259     0.12090
C247        C  0.09224922  0.49677669  0.11518496    -0.14050
C248        C  0.10026725  0.49771209  0.14647749     0.08100
C249        C  0.13150488  0.99867902  0.15444754    -0.14050
C250        C  0.15413102  0.99879498  0.13183200    -0.14050
C251        C  0.14622752  0.99792710  0.10054151     0.08100
C252        C  0.11498728  0.49687769  0.09245736    -0.14050
H253        H  0.06841639  0.49598503  0.10821650     0.12090
H254        H  0.13861874  0.99950142  0.17826304     0.12090
H255        H  0.17790342  0.99968983  0.13899705     0.12090
H256        H  0.10806578  0.49616122  0.06858306     0.12090
C257        C  0.38569299  0.49941305  0.09259402    -0.14050
C258        C  0.35453819  0.00208012  0.10061589     0.08100
C259        C  0.34676451  0.00509108  0.13180178    -0.14050
C260        C  0.36942783  0.00513004  0.15439849    -0.14050
C261        C  0.40055991  0.00215547  0.14650155     0.08100
C262        C  0.40845799  0.49944407  0.11529220    -0.14050
H263        H  0.39251183  0.49704167  0.06879830     0.12090
H264        H  0.32306206  0.00733705  0.13889741     0.12090
H265        H  0.36241949  0.00738276  0.17815188     0.12090
H266        H  0.43220186  0.49709740  0.10837706     0.12090
C267        C  0.01093449  0.12962489  0.34797541    -0.14050
C268        C  0.50337707  0.09909163  0.35519634     0.08100
C269        C  0.49614830  0.09171534  0.38580109    -0.14050
C270        C  0.49608859  0.11448253  0.40853822    -0.14050
C271        C  0.00325957  0.14509963  0.40114435     0.08100
C272        C  0.01088134  0.15230030  0.37062297    -0.14050
H273        H  0.01687269  0.13611276  0.32471902     0.12090
H274        H  0.49009239  0.06844452  0.39212318     0.12090
H275        H  0.48999340  0.10816995  0.43180098     0.12090
H276        H  0.01678658  0.17556137  0.36412195     0.12090
C277        C  0.00538694  0.40692053  0.38534743    -0.14050
C278        C  0.99791584  0.39948455  0.35480007     0.08100
C279        C  0.49030031  0.36893918  0.34765076    -0.14050
C280        C  0.49048306  0.34631872  0.37033292    -0.14050
C281        C  0.99829266  0.35360409  0.40080288     0.08100
C282        C  0.00556860  0.38422045  0.40810974    -0.14050
H283        H  0.01150881  0.43019907  0.39161188     0.12090
H284        H  0.48417898  0.36241623  0.32444022     0.12090
H285        H  0.48447368  0.32304861  0.36392103     0.12090
H286        H  0.01181431  0.39058618  0.43132980     0.12090
C287        C  0.01395277  0.40530195  0.11778284    -0.14050
C288        C  0.99975656  0.39986586  0.14624872     0.08100
C289        C  0.48540626  0.37146766  0.15140438    -0.14050
C290        C  0.48551682  0.34880423  0.12874525    -0.14050
C291        C  0.49998478  0.35401772  0.10041282     0.08100
C292        C  0.01406559  0.38254929  0.09503569    -0.14050
H293        H  0.02540615  0.42691809  0.11333034     0.12090
H294        H  0.47393726  0.36681247  0.17297022     0.12090
H295        H  0.47412023  0.32718988  0.13335135     0.12090
H296        H  0.02559413  0.38705449  0.07347051     0.12090
C297        C  0.00402305  0.09192592  0.11580388    -0.14050
C298        C  0.49798026  0.09944755  0.14663898     0.08100
C299        C  0.49129814  0.13014077  0.15413024    -0.14050
C300        C  0.49107797  0.15281942  0.13151076    -0.14050
C301        C  0.49753428  0.14545864  0.10074724     0.08100
C302        C  0.00380829  0.11468811  0.09310241    -0.14050
H303        H  0.00933162  0.06852506  0.10924692     0.12090
H304        H  0.48625177  0.13675229  0.17757236     0.12090
H305        H  0.48589680  0.17620492  0.13822666     0.12090
H306        H  0.00897337  0.10822837  0.06964570     0.12090
O307        O  0.41493249  0.00208195  0.69894138    -0.75990
O308        O  0.45269096  0.00016330  0.66278889    -0.54900
C309        C  0.42432478  0.00149066  0.67089775     0.77740
O310        O  0.50328735  0.08494623  0.80267361    -0.60590
O311        O  0.50094976  0.04704216  0.83869071    -0.53620
C312        C  0.50253717  0.07544606  0.83068280     0.69750
O313        O  0.49876364  0.08515630  0.69911921    -0.75150
O314        O  0.00004978  0.04731003  0.66292621    -0.55710
C315        C  0.49896557  0.07571457  0.67106647     0.75760
O316        O  0.41487274  0.99887943  0.80241744    -0.60290
O317        O  0.45269249  0.49906478  0.83857905    -0.53410
C318        C  0.42428478  0.99878011  0.83046527     0.72350
Zr319      Zr  0.43616248  0.00011638  0.75069664     2.54710
O320        O  0.39806785  0.04096944  0.75198582    -0.80860
O321        O  0.39708083  0.46017367  0.74999612    -0.94100
Zr322      Zr  0.50093764  0.06377550  0.75083303     2.64680
O323        O  0.46076500  0.10264444  0.75197949    -0.99230
O324        O  0.04128786  0.10241006  0.74954234    -0.81290
O325        O  0.46812078  0.03241422  0.72084879    -0.84650
O326        O  0.46797978  0.03248063  0.78069711    -2.19360
O327        O  0.99765477  0.41367627  0.80227168    -0.68040
O328        O  0.50000595  0.45154375  0.83839390    -0.52600
C329        C  0.99850593  0.42314809  0.83030671     0.70730
O330        O  0.08586571  0.49743537  0.69892741    -0.60950
O331        O  0.04810954  0.99893536  0.66275571    -0.52920
C332        C  0.07648449  0.49797116  0.67087390     0.72530
O333        O  0.08590100  0.49938873  0.80232767    -0.72340
O334        O  0.04814179  0.49951170  0.83851517    -0.51020
C335        C  0.07652907  0.49954578  0.83038184     0.73920
O336        O  0.99900300  0.41370174  0.69870175    -0.67670
O337        O  0.00127345  0.45175611  0.66274662    -0.54870
C338        C  0.00009205  0.42334062  0.67075158     0.72300
Zr339      Zr  0.99956631  0.43507299  0.75050943     2.77540
O340        O  0.03992578  0.39639420  0.75041968    -0.98420
O341        O  0.45911289  0.39656558  0.74991135    -0.79240
Zr342      Zr  0.06448722  0.49880550  0.75061979     2.70070
O343        O  0.10325085  0.45858069  0.75157362    -0.80490
O344        O  0.10271426  0.03952018  0.74933712    -0.99570
Zr345      Zr  0.00042336  0.99948588  0.69145822     2.21500
Zr346      Zr  0.50038721  0.49935118  0.80987171     2.11130
O347        O  0.03263589  0.46630991  0.78040410    -2.48260
O348        O  0.03262426  0.46637578  0.72069475    -0.80280
O349        O  0.46738617  0.46706697  0.78055111    -0.72480
O350        O  0.03331351  0.03192536  0.72081637    -2.33430
O351        O  0.46731132  0.46711964  0.72066600    -2.29640
O352        O  0.03329256  0.03175545  0.78066010    -0.74240
H353        H  0.45551618  0.04513740  0.79397318     0.77760
H354        H  0.04599180  0.04439255  0.70759227     0.78850
H355        H  0.04512451  0.45358329  0.79357856     0.81070
H356        H  0.45457415  0.45472052  0.70740992     0.78680
H357        H  0.05698470  0.09394712  0.73545728     0.41710
H358        H  0.09687048  0.05346534  0.76633061     0.40690
H359        H  0.09365212  0.44114226  0.74058338     0.40360
H360        H  0.05226388  0.40078607  0.76899966     0.38300
H361        H  0.44179793  0.40638166  0.76088248     0.41430
H362        H  0.40165680  0.44776239  0.73149637     0.36210
H363        H  0.40766072  0.05807829  0.74051140     0.42330
H364        H  0.44884236  0.09823781  0.77081464     0.38740
H365        H  0.02920188  0.37692430  0.75516065     0.43660
H366        H  0.37783699  0.47113486  0.74490937     0.42390
H367        H  0.47168643  0.12204941  0.75656324     0.42520
H368        H  0.12188260  0.02958335  0.75641933     0.42880
O369        O  0.49763783  0.19797538  0.58655572    -0.75990
O370        O  0.99959949  0.16183519  0.54868973    -0.54900
C371        C  0.49823380  0.16992952  0.57708877     0.77740
O372        O  0.41527160  0.30180060  0.49939434    -0.60590
O373        O  0.45316350  0.33783859  0.50033995    -0.53620
C374        C  0.42474831  0.32981740  0.49971498     0.69750
O375        O  0.41459056  0.19829048  0.50192060    -0.75150
O376        O  0.45226687  0.16198964  0.50146401    -0.55710
C377        C  0.42390582  0.17020937  0.50199020     0.75760
O378        O  0.49930219  0.30155129  0.58654969    -0.60290
O379        O  0.50171316  0.33750611  0.54850010    -0.53410
C380        C  0.50043462  0.32950047  0.57691368     0.72350
Zr381      Zr  0.49988896  0.24974391  0.56519778     2.54710
O382        O  0.45990723  0.25046136  0.60419529    -0.80860
O383        O  0.04067779  0.24966770  0.60341485    -0.94280
Zr384      Zr  0.43616644  0.24989323  0.50046055     2.64680
O385        O  0.39726163  0.25045779  0.54058896    -0.99230
O386        O  0.39771522  0.24975386  0.95991362    -0.81290
O387        O  0.46741942  0.21989566  0.53333768    -0.84650
O388        O  0.46764582  0.27973266  0.53327990    -2.19360
O389        O  0.08619204  0.30093777  0.50219577    -0.68040
O390        O  0.04855283  0.33724523  0.50099244    -0.52600
C391        C  0.07698836  0.32901317  0.00172626     0.70730
O392        O  0.00319830  0.19767311  0.91527315    -0.60950
O393        O  0.00056691  0.16166778  0.95317709    -0.52920
C394        C  0.00232781  0.16966411  0.92477899     0.72530
O395        O  0.99867779  0.30115670  0.91508650    -0.72340
O396        O  0.50052316  0.33735433  0.95290651    -0.51020
C397        C  0.99920602  0.32920805  0.92451578     0.73920
O398        O  0.08562806  0.19749239  0.50100190    -0.67670
O399        O  0.04771020  0.16145494  0.50058428    -0.54870
C400        C  0.07610226  0.16947448  0.00077357     0.72300
Zr401      Zr  0.06452830  0.24931700  0.50129165     2.77540
O402        O  0.10346475  0.24884730  0.96117425    -0.98420
O403        O  0.10278600  0.24864994  0.54200277    -0.79240
Zr404      Zr  0.00066635  0.24945389  0.93654258     2.70070
O405        O  0.04061730  0.25142437  0.89756376    -0.80490
O406        O  0.45979230  0.24697533  0.89852107    -0.99570
Zr407      Zr  0.00012493  0.19039031  0.50091215     2.21500
Zr408      Zr  0.50071781  0.30881498  0.50074553     2.11130
O409        O  0.03339461  0.27923595  0.96821832    -2.48260
O410        O  0.03304236  0.21951571  0.96843030    -0.80280
O411        O  0.03291738  0.27946042  0.53376887    -0.72480
O412        O  0.46771763  0.21976412  0.96795620    -2.33430
O413        O  0.03265732  0.21963953  0.53385619    -2.29640
O414        O  0.46812244  0.27968321  0.96796648    -0.74240
H415        H  0.45502395  0.29303610  0.54576347     0.77760
H416        H  0.45520387  0.20652889  0.95528985     0.78850
H417        H  0.04605934  0.29234377  0.95559340     0.81070
H418        H  0.04510368  0.20638355  0.54655156     0.78680
H419        H  0.40498241  0.23416923  0.94503412     0.41710
H420        H  0.44548464  0.26363295  0.90441470     0.40690
H421        H  0.05801703  0.24002236  0.90670896     0.40360
H422        H  0.09881331  0.26698584  0.94828917     0.38300
H423        H  0.09356954  0.26101538  0.55871479     0.41430
H424        H  0.05267490  0.23083992  0.59912132     0.36210
H425        H  0.44225620  0.24004044  0.59438536     0.42330
H426        H  0.40216453  0.26866235  0.55330715     0.38740
H427        H  0.12275525  0.25424844  0.97189942     0.43660
H428        H  0.03009575  0.24533509  0.62305758     0.42390
H429        H  0.37804564  0.25602517  0.52981535     0.42520
H430        H  0.46940805  0.25424237  0.87925243     0.42880
O431        O  0.30168767  0.08553028  0.50246136    -0.75990
O432        O  0.33790771  0.04778619  0.50134854    -0.54900
C433        C  0.32973063  0.07617695  0.50220449     0.77740
O434        O  0.19862656  0.49827251  0.58621216    -0.60590
O435        O  0.16253266  0.99884282  0.54835020    -0.53620
C436        C  0.17061539  0.99831912  0.57677502     0.69750
O437        O  0.30207930  0.50145413  0.58634888    -0.75150
O438        O  0.33815838  0.50054757  0.54847880    -0.55710
C439        C  0.33008745  0.00135773  0.57689300     0.75760
O440        O  0.19827764  0.08506414  0.50053362    -0.60290
O441        O  0.16233833  0.04704106  0.50026061    -0.53410
C442        C  0.17031036  0.07549989  0.50040066     0.72350
Zr443      Zr  0.25008378  0.06397588  0.50077905     2.54710
O444        O  0.24912499  0.10282018  0.54098698    -0.80860
O445        O  0.25004446  0.10247074  0.96019634    -0.94280
Zr446      Zr  0.25037827  0.49971058  0.56503458     2.64680
O447        O  0.24977434  0.04006527  0.60378510    -0.99230
O448        O  0.25116096  0.45944462  0.60380472    -0.81290
O449        O  0.28010582  0.03245427  0.53339716    -0.84650
O450        O  0.22036705  0.03226664  0.53344808    -2.19360
O451        O  0.19874142  0.00032345  0.91505957    -0.68040
O452        O  0.16263375  0.99961591  0.95289393    -0.52600
C453        C  0.17073683  0.50002255  0.92446741     0.70730
O454        O  0.30248679  0.41432574  0.49949909    -0.60950
O455        O  0.33845133  0.45229898  0.50029945    -0.52920
C456        C  0.33055678  0.42395574  0.99972595     0.72530
O457        O  0.19911012  0.41378354  0.50158169    -0.72340
O458        O  0.16288104  0.45152770  0.50098627    -0.51020
C459        C  0.17113694  0.42311898  0.00144176     0.73920
O460        O  0.30213814  0.99865617  0.91514814    -0.67670
O461        O  0.33824303  0.49961600  0.95300983    -0.54870
C462        C  0.33016251  0.49892691  0.92458641     0.72300
Zr463      Zr  0.25044876  0.99975670  0.93644664     2.77540
O464        O  0.25047222  0.45984488  0.89723633    -0.98420
O465        O  0.25116185  0.04066567  0.89838992    -0.79240
Zr466      Zr  0.25069953  0.43541597  0.50078746     2.70070
O467        O  0.24999596  0.39625306  0.96092631    -0.80490
O468        O  0.25224359  0.39755583  0.54187037    -0.99570
Zr469      Zr  0.30953286  0.49991209  0.50073111     2.21500
Zr470      Zr  0.19125663  0.99942942  0.50065687     2.11130
O471        O  0.22080689  0.46685783  0.96799366    -2.48260
O472        O  0.28045455  0.46718069  0.96806550    -0.80280
O473        O  0.22033685  0.03228716  0.96803893    -0.72480
O474        O  0.28043194  0.46712058  0.53347534    -2.33430
O475        O  0.28014583  0.03261803  0.96803284    -2.29640
O476        O  0.22060664  0.46690796  0.53339914    -0.74240
H477        H  0.20710820  0.04480542  0.54604773     0.77760
H478        H  0.29371904  0.45458487  0.54603564     0.78850
H479        H  0.20771142  0.45415058  0.95539484     0.81070
H480        H  0.29330064  0.04525427  0.95544778     0.78680
H481        H  0.26556759  0.44383413  0.59571752     0.41710
H482        H  0.23512727  0.40334085  0.55565738     0.40690
H483        H  0.26005738  0.40609319  0.94308393     0.40360
H484        H  0.23246062  0.44687421  0.90206011     0.38300
H485        H  0.23830232  0.05709296  0.90743143     0.41430
H486        H  0.26857738  0.09796810  0.94785019     0.36210
H487        H  0.25999493  0.09318172  0.55846854     0.42330
H488        H  0.23134992  0.05249036  0.59905099     0.38740
H489        H  0.24478080  0.47065044  0.87806087     0.43660
H490        H  0.25483856  0.12199243  0.97083789     0.42390
H491        H  0.24462286  0.02932545  0.62314532     0.42520
H492        H  0.24545403  0.37818874  0.53207093     0.42880
C493        C  0.38625730  0.40835340  0.99795925    -0.14050
C494        C  0.35504251  0.40025281  0.99953616     0.08100
C495        C  0.34711547  0.36886302  0.50113547    -0.14050
C496        C  0.36977331  0.34627889  0.50115375    -0.14050
C497        C  0.40098363  0.35424205  0.49955743     0.08100
C498        C  0.40904777  0.38564393  0.99797237    -0.14050
H499        H  0.39310847  0.43222055  0.99668123     0.12090
H500        H  0.32337361  0.36168622  0.50250092     0.12090
H501        H  0.36269745  0.32248164  0.50253505     0.12090
H502        H  0.43285746  0.39260354  0.99669623     0.12090
C503        C  0.36884503  0.15387189  0.50346704    -0.14050
C504        C  0.40008313  0.14587127  0.50255527     0.08100
C505        C  0.40808331  0.11456994  0.50195502    -0.14050
C506        C  0.38534199  0.09187017  0.50202710    -0.14050
C507        C  0.35409765  0.09996969  0.50270488     0.08100
C508        C  0.34619632  0.13126456  0.50353980    -0.14050
H509        H  0.36174956  0.17770266  0.50400874     0.12090
H510        H  0.43190979  0.10756549  0.50127548     0.12090
H511        H  0.39227126  0.06799397  0.50139899     0.12090
H512        H  0.32241416  0.13843377  0.50411278     0.12090
C513        C  0.09280535  0.38465792  0.00183282    -0.14050
C514        C  0.10082448  0.35335316  0.00186151     0.08100
C515        C  0.13207779  0.34536390  0.00183914    -0.14050
C516        C  0.15471586  0.36798963  0.00176046    -0.14050
C517        C  0.14678901  0.39929262  0.00169204     0.08100
C518        C  0.11553350  0.40737363  0.00174987    -0.14050
H519        H  0.06896729  0.39165634  0.00184770     0.12090
H520        H  0.13918744  0.32153111  0.00181226     0.12090
H521        H  0.17850783  0.36083094  0.00169928     0.12090
H522        H  0.10858207  0.43125124  0.00170302     0.12090
C523        C  0.09216752  0.11412996  0.99532821    -0.14050
C524        C  0.09980465  0.14502849  0.00090272     0.08100
C525        C  0.13066084  0.15262134  0.50654634    -0.14050
C526        C  0.15331581  0.13002948  0.50642820    -0.14050
C527        C  0.14583369  0.09916709  0.50065962     0.08100
C528        C  0.11494482  0.09141695  0.99521115    -0.14050
H529        H  0.06865157  0.10752043  0.99080047     0.12090
H530        H  0.13739849  0.17610772  0.51118882     0.12090
H531        H  0.17676900  0.13683850  0.51099539     0.12090
H532        H  0.10841121  0.06786712  0.99060421     0.12090
C533        C  0.40854707  0.99867705  0.88616945    -0.14050
C534        C  0.40051440  0.99848631  0.85486822     0.08100
C535        C  0.36926187  0.99822202  0.84689823    -0.14050
C536        C  0.34664980  0.49826588  0.86952128    -0.14050
C537        C  0.35456664  0.49857581  0.90081828     0.08100
C538        C  0.38582298  0.49872196  0.90890432    -0.14050
H539        H  0.43238922  0.99887923  0.89314638     0.12090
H540        H  0.36212776  0.99806028  0.82307563     0.12090
H541        H  0.32286430  0.49814104  0.86234701     0.12090
H542        H  0.39275920  0.49894285  0.93278373     0.12090
C543        C  0.15419456  0.49804446  0.86943617    -0.14050
C544        C  0.14633375  0.49995792  0.90068850     0.08100
C545        C  0.11510666  0.00167164  0.90874678    -0.14050
C546        C  0.09235170  0.00152970  0.88602993    -0.14050
C547        C  0.10033360  0.49967042  0.85476474     0.08100
C548        C  0.13154600  0.49790703  0.84682463    -0.14050
H549        H  0.17794698  0.49656192  0.86230706     0.12090
H550        H  0.10822060  0.00319414  0.93259182     0.12090
H551        H  0.06854454  0.00294672  0.89297903     0.12090
H552        H  0.13862037  0.49635433  0.82303538     0.12090
C553        C  0.09224211  0.49677794  0.61519017    -0.14050
C554        C  0.10026253  0.49771335  0.64648188     0.08100
C555        C  0.13150014  0.99868161  0.65445140    -0.14050
C556        C  0.15412445  0.99879703  0.63183452    -0.14050
C557        C  0.14621833  0.99792829  0.60054467     0.08100
C558        C  0.11497832  0.49687858  0.59246174    -0.14050
H559        H  0.06840893  0.49598573  0.60822298     0.12090
H560        H  0.13861538  0.99950370  0.67826651     0.12090
H561        H  0.17789737  0.99969120  0.63899798     0.12090
H562        H  0.10805551  0.49616074  0.56858786     0.12090
C563        C  0.38568638  0.49938881  0.59259134    -0.14050
C564        C  0.35453064  0.00205185  0.60061255     0.08100
C565        C  0.34675891  0.00507904  0.63179744    -0.14050
C566        C  0.36942374  0.00513118  0.65439325    -0.14050
C567        C  0.40055593  0.00215417  0.64649686     0.08100
C568        C  0.40845277  0.49943294  0.61528905    -0.14050
H569        H  0.39250492  0.49701085  0.56879620     0.12090
H570        H  0.32305656  0.00732539  0.63889325     0.12090
H571        H  0.36241622  0.00739337  0.67814598     0.12090
H572        H  0.43219680  0.49708809  0.60837383     0.12090
C573        C  0.01091472  0.12963987  0.84797517    -0.14050
C574        C  0.50336032  0.09910607  0.85519863     0.08100
C575        C  0.49613154  0.09173428  0.88580484    -0.14050
C576        C  0.49607072  0.11450509  0.90854005    -0.14050
C577        C  0.00324105  0.14512234  0.90114388     0.08100
C578        C  0.01086082  0.15231865  0.87062065    -0.14050
H579        H  0.01685241  0.13612557  0.82471806     0.12090
H580        H  0.49007764  0.06846374  0.89212980     0.12090
H581        H  0.48997732  0.10819456  0.93180381     0.12090
H582        H  0.01676516  0.17557902  0.86411642     0.12090
C583        C  0.00540977  0.40693939  0.88534154    -0.14050
C584        C  0.99792271  0.39949936  0.85479945     0.08100
C585        C  0.49030199  0.36895460  0.84765571    -0.14050
C586        C  0.49049764  0.34633693  0.87033904    -0.14050
C587        C  0.99832609  0.35362585  0.90080324     0.08100
C588        C  0.00560471  0.38424219  0.90810487    -0.14050
H589        H  0.01153565  0.43021837  0.89160045     0.12090
H590        H  0.48416802  0.36243005  0.82444891     0.12090
H591        H  0.48448425  0.32306639  0.86393243     0.12090
H592        H  0.01186303  0.39060997  0.93132096     0.12090
C593        C  0.01391706  0.40528611  0.61777039    -0.14050
C594        C  0.99973903  0.39985157  0.64624619     0.08100
C595        C  0.48539410  0.37145153  0.65141037    -0.14050
C596        C  0.48549174  0.34878644  0.62875134    -0.14050
C597        C  0.49994056  0.35399885  0.60040884     0.08100
C598        C  0.01401650  0.38253182  0.59502313    -0.14050
H599        H  0.02536612  0.42690276  0.61330943     0.12090
H600        H  0.47393858  0.36679595  0.67298324     0.12090
H601        H  0.47410017  0.32717123  0.63336567     0.12090
H602        H  0.02553169  0.38703684  0.57345075     0.12090
C603        C  0.00403571  0.09190806  0.61581012    -0.14050
C604        C  0.49798353  0.09943257  0.64664225     0.08100
C605        C  0.49129463  0.13012447  0.65413068    -0.14050
C606        C  0.49107634  0.15280027  0.63150997    -0.14050
C607        C  0.49754172  0.14543673  0.60074927     0.08100
C608        C  0.00382313  0.11466742  0.59310746    -0.14050
H609        H  0.00934983  0.06850746  0.60925665     0.12090
H610        H  0.48624104  0.13673688  0.67757102     0.12090
H611        H  0.48588912  0.17618535  0.63822266     0.12090
H612        H  0.00899485  0.10820649  0.56965254     0.12090
O613        O  0.41493744  0.50207912  0.19894833    -0.75990
O614        O  0.45269443  0.50016669  0.16279373    -0.54900
C615        C  0.42432887  0.50149025  0.17090452     0.77740
O616        O  0.50330110  0.58493922  0.30267180    -0.60590
O617        O  0.50096404  0.54703255  0.33868683    -0.53620
C618        C  0.50255308  0.57543605  0.33067971     0.69750
O619        O  0.49876610  0.58516498  0.19911732    -0.75150
O620        O  0.00005086  0.54732094  0.16292247    -0.55710
C621        C  0.49896619  0.57572589  0.17106325     0.75760
O622        O  0.41488106  0.49888344  0.30242482    -0.60290
O623        O  0.45268380  0.99906177  0.33857871    -0.53410
C624        C  0.42429332  0.49878126  0.33047281     0.72350
Zr625      Zr  0.43616935  0.50011672  0.25070187     2.54710
O626        O  0.39807448  0.54096949  0.25199321    -0.80860
O627        O  0.39707802  0.96017419  0.24999185    -0.94100
Zr628      Zr  0.50094421  0.56377634  0.25083065     2.64680
O629        O  0.46077208  0.60264555  0.25198366    -0.99230
O630        O  0.04129497  0.60241048  0.24954162    -0.81290
O631        O  0.46812357  0.53241727  0.22085042    -0.84650
O632        O  0.46799009  0.53247886  0.28069889    -2.19360
O633        O  0.99765289  0.91366933  0.30227170    -0.68040
O634        O  0.49999978  0.95153390  0.33839659    -0.52600
C635        C  0.99850130  0.92313788  0.33030825     0.70730
O636        O  0.08586622  0.99743383  0.19892661    -0.60950
O637        O  0.04811313  0.49894078  0.16274860    -0.52920
C638        C  0.07648666  0.99797181  0.17087243     0.72530
O639        O  0.08589404  0.99939220  0.30232680    -0.72340
O640        O  0.04813375  0.99950780  0.33851341    -0.51020
C641        C  0.07652088  0.99954673  0.33038040     0.73920
O642        O  0.99900600  0.91370926  0.19870253    -0.67670
O643        O  0.00127853  0.95176617  0.16274942    -0.54870
C644        C  0.00009871  0.92335102  0.17075393     0.72300
Zr645      Zr  0.99956320  0.93507376  0.25051019     2.77540
O646        O  0.03992143  0.89639369  0.25041798    -0.98420
O647        O  0.45910819  0.89656806  0.24990748    -0.79240
Zr648      Zr  0.06448407  0.99880632  0.25061856     2.70070
O649        O  0.10324736  0.95858120  0.25157220    -0.80490
O650        O  0.10272040  0.53952147  0.24932925    -0.99570
Zr651      Zr  0.00042859  0.49949445  0.19145725     2.21500
Zr652      Zr  0.50038022  0.99934366  0.30987103     2.11130
O653        O  0.03263394  0.96630816  0.28040366    -2.48260
O654        O  0.03261965  0.96637930  0.22069457    -0.80280
O655        O  0.46737822  0.96706263  0.28055069    -0.72480
O656        O  0.03332186  0.53193078  0.22081242    -2.33430
O657        O  0.46731267  0.96712464  0.22066490    -2.29640
O658        O  0.03329652  0.53175094  0.28065610    -0.74240
H659        H  0.45552770  0.54513519  0.29397619     0.77760
H660        H  0.04599947  0.54439838  0.20758798     0.78850
H661        H  0.04512246  0.95358113  0.29357786     0.81070
H662        H  0.45457619  0.95472579  0.20740787     0.78680
H663        H  0.05699113  0.59394874  0.23545508     0.41710
H664        H  0.09687850  0.55346534  0.26632444     0.40690
H665        H  0.09364782  0.94114233  0.24058336     0.40360
H666        H  0.05226062  0.90078488  0.26899740     0.38300
H667        H  0.44179527  0.90638166  0.26088406     0.41430
H668        H  0.40165693  0.94776171  0.23149362     0.36210
H669        H  0.40766636  0.55807823  0.24051781     0.42330
H670        H  0.44885033  0.59823668  0.27081882     0.38740
H671        H  0.02919719  0.87692403  0.25515914     0.43660
H672        H  0.37783495  0.97113502  0.24490140     0.42390
H673        H  0.47169397  0.62204982  0.25656929     0.42520
H674        H  0.12188966  0.52958425  0.25640840     0.42880
O675        O  0.49764822  0.69800127  0.08655620    -0.75990
O676        O  0.99958157  0.66186381  0.04868649    -0.54900
C677        C  0.49822856  0.66995523  0.07708733     0.77740
O678        O  0.41536231  0.80191912  0.99938998    -0.60590
O679        O  0.45326976  0.83793868  0.00034514    -0.53620
C680        C  0.42485080  0.82993274  0.99971618     0.69750
O681        O  0.41457163  0.69839606  0.00192241    -0.75150
O682        O  0.45223129  0.66207625  0.00146396    -0.55710
C683        C  0.42387438  0.67031040  0.00199136     0.75760
O684        O  0.49933738  0.80157445  0.08655110    -0.60290
O685        O  0.50178556  0.83753129  0.04850554    -0.53410
C686        C  0.50048698  0.82952304  0.07691723     0.72350
Zr687      Zr  0.49991321  0.74977175  0.06519663     2.54710
O688        O  0.45992335  0.75049195  0.10418558    -0.80860
O689        O  0.04069552  0.74968717  0.10342066    -0.94280
Zr690      Zr  0.43619371  0.74998083  0.00045429     2.64680
O691        O  0.39726472  0.75060747  0.04055847    -0.99230
O692        O  0.39767467  0.74961651  0.45993247    -0.81290
O693        O  0.46742388  0.71995350  0.03333097    -0.84650
O694        O  0.46769345  0.77978842  0.03327919    -2.19360
O695        O  0.08626205  0.80092271  0.00219829    -0.68040
O696        O  0.04863729  0.83724478  0.00099344    -0.52600
C697        C  0.07690449  0.82902539  0.50172614     0.70730
O698        O  0.00319041  0.69764705  0.41527384    -0.60950
O699        O  0.00059214  0.66163792  0.45317699    -0.52920
C700        C  0.00234048  0.66963779  0.42477946     0.72530
O701        O  0.99864551  0.80113066  0.41508490    -0.72340
O702        O  0.50045463  0.83732676  0.45290802    -0.51020
C703        C  0.99915902  0.82918261  0.42451543     0.73920
O704        O  0.08561922  0.69748175  0.00100326    -0.67670
O705        O  0.04768615  0.66146033  0.00058365    -0.54870
C706        C  0.07612584  0.66948137  0.50077076     0.72300
Zr707      Zr  0.06455697  0.74931818  0.00129325     2.77540
O708        O  0.10343530  0.74887644  0.46117172    -0.98420
O709        O  0.10281441  0.74862404  0.04200432    -0.79240
Zr710      Zr  0.00063540  0.74942430  0.43654271     2.70070
O711        O  0.04058845  0.75140056  0.39756640    -0.80490
O712        O  0.45976425  0.74694248  0.39851824    -0.99570
Zr713      Zr  0.00011699  0.69042650  0.00091089     2.21500
Zr714      Zr  0.50078465  0.80885016  0.00074668     2.11130
O715        O  0.03334576  0.77922006  0.46822035    -2.48260
O716        O  0.03303016  0.71950043  0.46842763    -0.80280
O717        O  0.03296239  0.77947496  0.03377331    -0.72480
O718        O  0.46770980  0.71970596  0.46795662    -2.33430
O719        O  0.03266742  0.71965531  0.03385461    -2.29640
O720        O  0.46806907  0.77962461  0.46796982    -0.74240
H721        H  0.45507873  0.79310079  0.04576337     0.77760
H722        H  0.45520509  0.70646262  0.45529069     0.78850
H723        H  0.04600284  0.79233505  0.45559663     0.81070
H724        H  0.04510638  0.70639157  0.04655025     0.78680
H725        H  0.40499100  0.73408875  0.44501765     0.41710
H726        H  0.44545814  0.76360321  0.40440689     0.40690
H727        H  0.05799498  0.74001511  0.40671929     0.40360
H728        H  0.09877382  0.76701532  0.44829076     0.38300
H729        H  0.09360430  0.76099110  0.05871866     0.41430
H730        H  0.05269394  0.73086096  0.09912380     0.36210
H731        H  0.44225669  0.74011870  0.09435334     0.42330
H732        H  0.40220219  0.76879131  0.05329303     0.38740
H733        H  0.12272297  0.75428579  0.47189786     0.43660
H734        H  0.03011041  0.74534880  0.12306044     0.42390
H735        H  0.37806874  0.75622847  0.02977683     0.42520
H736        H  0.46938277  0.75420423  0.37924897     0.42880
O737        O  0.30165790  0.58561406  0.00245917    -0.75990
O738        O  0.33789370  0.54788542  0.00134966    -0.54900
C739        C  0.32970460  0.57627291  0.00220355     0.77740
O740        O  0.19863795  0.99829124  0.08621351    -0.60590
O741        O  0.16254692  0.49884098  0.04834342    -0.53620
C742        C  0.17062718  0.49832447  0.07676906     0.69750
O743        O  0.30208914  0.00148645  0.08634786    -0.75150
O744        O  0.33816853  0.00061914  0.04847686    -0.55710
C745        C  0.33009743  0.50140302  0.07689913     0.75760
O746        O  0.19825456  0.58507250  0.00053262    -0.60290
O747        O  0.16233086  0.54703488  0.00025872    -0.53410
C748        C  0.17029140  0.57549704  0.00040023     0.72350
Zr749      Zr  0.25007167  0.56401732  0.00077849     2.54710
O750        O  0.24908914  0.60285940  0.04098807    -0.80860
O751        O  0.25008905  0.60242674  0.46019424    -0.94280
Zr752      Zr  0.25039047  0.99974752  0.06503326     2.64680
O753        O  0.24977923  0.54009302  0.10379345    -0.99230
O754        O  0.25117449  0.95947123  0.10379256    -0.81290
O755        O  0.28010677  0.53251267  0.03340145    -0.84650
O756        O  0.22036991  0.53229172  0.03344636    -2.19360
O757        O  0.19874222  0.50030370  0.41505483    -0.68040
O758        O  0.16262993  0.49961942  0.45288576    -0.52600
C759        C  0.17072114  0.00001772  0.42446817     0.70730
O760        O  0.30257451  0.91441913  0.99949540    -0.60950
O761        O  0.33851843  0.95241134  0.00029642    -0.52920
C762        C  0.33046717  0.92384713  0.49972419     0.72530
O763        O  0.19918443  0.91378906  0.00158194    -0.72340
O764        O  0.16293700  0.95151662  0.00099203    -0.51020
C765        C  0.17106132  0.92312625  0.50144296     0.73920
O766        O  0.30213843  0.49862333  0.41515299    -0.67670
O767        O  0.33822645  0.99954650  0.45300934    -0.54870
C768        C  0.33014678  0.99888165  0.42458499     0.72300
Zr769      Zr  0.25044450  0.49971592  0.43644790     2.77540
O770        O  0.25045247  0.95981079  0.39723174    -0.98420
O771        O  0.25116645  0.54063106  0.39839786    -0.79240
Zr772      Zr  0.25075915  0.93545625  0.00078354     2.70070
O773        O  0.24989844  0.89621610  0.46092697    -0.80490
O774        O  0.25233312  0.89759061  0.04186024    -0.99570
Zr775      Zr  0.30954650  0.99999078  0.00072750     2.21500
Zr776      Zr  0.19127847  0.49943929  0.00065426     2.11130
O777        O  0.22076648  0.96683473  0.46799364    -2.48260
O778        O  0.28041339  0.96711882  0.46806613    -0.80280
O779        O  0.22034260  0.53226000  0.46803735    -0.72480
O780        O  0.28046673  0.96718003  0.03347163    -2.33430
O781        O  0.28015227  0.53255945  0.46803855    -2.29640
O782        O  0.22064220  0.96692889  0.03339508    -0.74240
H783        H  0.20710427  0.54482339  0.04604587     0.77760
H784        H  0.29376128  0.95465120  0.04603069     0.78850
H785        H  0.20766438  0.95413481  0.45539452     0.81070
H786        H  0.29331476  0.54519030  0.45545552     0.78680
H787        H  0.26558031  0.94386275  0.09569999     0.41710
H788        H  0.23521600  0.90336353  0.05565127     0.40690
H789        H  0.25999749  0.90603782  0.44309571     0.40360
H790        H  0.23243864  0.94684222  0.40205281     0.38300
H791        H  0.23831603  0.55706244  0.40744495     0.41430
H792        H  0.26862845  0.59792155  0.44785876     0.36210
H793        H  0.25996016  0.59322484  0.05847110     0.42330
H794        H  0.23135432  0.55251725  0.09905894     0.38740
H795        H  0.24476363  0.97062005  0.37805759     0.43660
H796        H  0.25487930  0.62194838  0.47083758     0.42390
H797        H  0.24462529  0.52934796  0.12315012     0.42520
H798        H  0.24555291  0.87822111  0.03205905     0.42880
C799        C  0.38615498  0.90822890  0.49795633    -0.14050
C800        C  0.35494028  0.90013365  0.49953166     0.08100
C801        C  0.34722072  0.86898068  0.00114063    -0.14050
C802        C  0.36988144  0.84640108  0.00116069    -0.14050
C803        C  0.40109094  0.85436541  0.99956107     0.08100
C804        C  0.40893988  0.88551801  0.49796890    -0.14050
H805        H  0.39301155  0.93209454  0.49668090     0.12090
H806        H  0.32348085  0.86179807  0.00250819     0.12090
H807        H  0.36280655  0.82260388  0.00254531     0.12090
H808        H  0.43274994  0.89247648  0.49669509     0.12090
C809        C  0.36880763  0.65397842  0.00346267    -0.14050
C810        C  0.40004615  0.64597827  0.00255601     0.08100
C811        C  0.40804727  0.61467745  0.00195919    -0.14050
C812        C  0.38530883  0.59197712  0.00203023    -0.14050
C813        C  0.35406424  0.60007338  0.00270350     0.08100
C814        C  0.34615947  0.63136822  0.00353438    -0.14050
H815        H  0.36171281  0.67780950  0.00400097     0.12090
H816        H  0.43187376  0.60767266  0.00128331     0.12090
H817        H  0.39224147  0.56810184  0.00140522     0.12090
H818        H  0.32237618  0.63853395  0.00410353     0.12090
C819        C  0.09271876  0.88467568  0.50183188    -0.14050
C820        C  0.10073637  0.85337022  0.50186134     0.08100
C821        C  0.13198933  0.84538009  0.50183948    -0.14050
C822        C  0.15462833  0.86800315  0.50176101    -0.14050
C823        C  0.14670537  0.89930680  0.50169230     0.08100
C824        C  0.11544999  0.90739079  0.50174913    -0.14050
H825        H  0.06888071  0.89167415  0.50184607     0.12090
H826        H  0.13909928  0.82154738  0.50181295     0.12090
H827        H  0.17841918  0.86084074  0.50170039     0.12090
H828        H  0.10850192  0.93126935  0.50170182     0.12090
C829        C  0.09219771  0.61414121  0.49532353    -0.14050
C830        C  0.09983457  0.64504039  0.50089475     0.08100
C831        C  0.13063405  0.65260956  0.00655596    -0.14050
C832        C  0.15328879  0.63001951  0.00643694    -0.14050
C833        C  0.14580894  0.59915785  0.00066333     0.08100
C834        C  0.11497395  0.59142831  0.49520621    -0.14050
H835        H  0.06868141  0.60753003  0.49079992     0.12090
H836        H  0.13737237  0.67609517  0.01120152     0.12090
H837        H  0.17674100  0.63683033  0.01100664     0.12090
H838        H  0.10843794  0.56787836  0.49060320     0.12090
C839        C  0.40855239  0.49866637  0.38617873    -0.14050
C840        C  0.40052181  0.49848530  0.35487664     0.08100
C841        C  0.36926923  0.49822242  0.34690601    -0.14050
C842        C  0.34663772  0.99825154  0.36951903    -0.14050
C843        C  0.35455265  0.99854760  0.40081673     0.08100
C844        C  0.38580908  0.99869884  0.40890346    -0.14050
H845        H  0.43239425  0.49886863  0.39315666     0.12090
H846        H  0.36213597  0.49806932  0.32308312     0.12090
H847        H  0.32285252  0.99812530  0.36234385     0.12090
H848        H  0.39274440  0.99891228  0.43278319     0.12090
C849        C  0.15418311  0.99804697  0.36943668    -0.14050
C850        C  0.14632016  0.99995949  0.40068850     0.08100
C851        C  0.11511047  0.50167604  0.40873651    -0.14050
C852        C  0.09235753  0.50153475  0.38601888    -0.14050
C853        C  0.10032370  0.99967361  0.35476342     0.08100
C854        C  0.13153613  0.99791045  0.34682428    -0.14050
H855        H  0.17793580  0.99656359  0.36230864     0.12090
H856        H  0.10822279  0.50319770  0.43258112     0.12090
H857        H  0.06855005  0.50295195  0.39296683     0.12090
H858        H  0.13861165  0.99635751  0.32303537     0.12090
C859        C  0.09224916  0.99677574  0.11518840    -0.14050
C860        C  0.10026693  0.99771154  0.14648091     0.08100
C861        C  0.13150527  0.49867933  0.15444374    -0.14050
C862        C  0.15413117  0.49879533  0.13182801    -0.14050
C863        C  0.14622755  0.49792772  0.10053750     0.08100
C864        C  0.11498734  0.99687671  0.09246112    -0.14050
H865        H  0.06841642  0.99598382  0.10821966     0.12090
H866        H  0.13861944  0.49950146  0.17825915     0.12090
H867        H  0.17790359  0.49968992  0.13899302     0.12090
H868        H  0.10806593  0.99615996  0.06858681     0.12090
C869        C  0.38569305  0.99941304  0.09259020    -0.14050
C870        C  0.35453819  0.50207989  0.10061997     0.08100
C871        C  0.34676460  0.50509064  0.13180587    -0.14050
C872        C  0.36942816  0.50512971  0.15440238    -0.14050
C873        C  0.40056021  0.50215546  0.14650504     0.08100
C874        C  0.40845793  0.99944394  0.11528871    -0.14050
H875        H  0.39251195  0.99704151  0.06879451     0.12090
H876        H  0.32306214  0.50733637  0.13890156     0.12090
H877        H  0.36242009  0.50738228  0.17815587     0.12090
H878        H  0.43220186  0.99709707  0.10837385     0.12090
C879        C  0.01093658  0.62962513  0.34797540    -0.14050
C880        C  0.50337988  0.59909169  0.35519630     0.08100
C881        C  0.49615093  0.59171525  0.38580097    -0.14050
C882        C  0.49609044  0.61448246  0.40853808    -0.14050
C883        C  0.00326080  0.64509971  0.40114426     0.08100
C884        C  0.01088266  0.65230055  0.37062294    -0.14050
H885        H  0.01687483  0.63611311  0.32471905     0.12090
H886        H  0.49009549  0.56844429  0.39212301     0.12090
H887        H  0.48999519  0.60816975  0.43180079     0.12090
H888        H  0.01678742  0.67556175  0.36412195     0.12090
C889        C  0.00538429  0.90692065  0.38534739    -0.14050
C890        C  0.99791297  0.89948453  0.35480011     0.08100
C891        C  0.49029812  0.86893899  0.34765084    -0.14050
C892        C  0.49048165  0.84631851  0.37033298    -0.14050
C893        C  0.99829137  0.85360403  0.40080288     0.08100
C894        C  0.00556673  0.88422054  0.40810968    -0.14050
H895        H  0.01150573  0.93019931  0.39161178     0.12090
H896        H  0.48417671  0.86241592  0.32444036     0.12090
H897        H  0.48447271  0.82304827  0.36392113     0.12090
H898        H  0.01181253  0.89058638  0.43132969     0.12090
C899        C  0.01395167  0.90530185  0.11778293    -0.14050
C900        C  0.99975539  0.89986572  0.14624878     0.08100
C901        C  0.48540514  0.87146747  0.15140437    -0.14050
C902        C  0.48551577  0.84880407  0.12874522    -0.14050
C903        C  0.49998371  0.85401765  0.10041280     0.08100
C904        C  0.01406452  0.88254923  0.09503574    -0.14050
H905        H  0.02540501  0.92691802  0.11333047     0.12090
H906        H  0.47393608  0.86681223  0.17297017     0.12090
H907        H  0.47411921  0.82718969  0.13335126     0.12090
H908        H  0.02559307  0.88705446  0.07347057     0.12090
C909        C  0.00402416  0.59192589  0.11580384    -0.14050
C910        C  0.49798123  0.59944751  0.14663892     0.08100
C911        C  0.49129883  0.63014068  0.15413012    -0.14050
C912        C  0.49107860  0.65281931  0.13151060    -0.14050
C913        C  0.49753515  0.64545857  0.10074712     0.08100
C914        C  0.00380935  0.61468806  0.09310235    -0.14050
H915        H  0.00933294  0.56852506  0.10924693     0.12090
H916        H  0.48625234  0.63675217  0.17757222     0.12090
H917        H  0.48589724  0.67620477  0.13822647     0.12090
H918        H  0.00897458  0.60822832  0.06964567     0.12090
O919        O  0.41493477  0.50208042  0.69894644    -0.75990
O920        O  0.45269175  0.50016265  0.66279231    -0.54900
C921        C  0.42432583  0.50148920  0.67090229     0.77740
O922        O  0.50329610  0.58494636  0.80267368    -0.60590
O923        O  0.50096120  0.54704212  0.83869079    -0.53620
C924        C  0.50254742  0.57544609  0.83068288     0.69750
O925        O  0.49876786  0.58515637  0.69911941    -0.75150
O926        O  0.00005130  0.54731001  0.66292640    -0.55710
C927        C  0.49896805  0.57571459  0.67106667     0.75760
O928        O  0.41488392  0.49887960  0.80242353    -0.60290
O929        O  0.45267992  0.99906475  0.83857446    -0.53410
C930        C  0.42429699  0.49878027  0.83047107     0.72350
Zr931      Zr  0.43616904  0.50011624  0.75070055     2.54710
O932        O  0.39807468  0.54096944  0.75199236    -0.80860
O933        O  0.39707421  0.96017389  0.74998790    -0.94100
Zr934      Zr  0.50094446  0.56377554  0.75083316     2.64680
O935        O  0.46077319  0.60264580  0.75198157    -0.99230
O936        O  0.04129599  0.60240871  0.74954064    -0.81290
O937        O  0.46812552  0.53241433  0.72085093    -0.84650
O938        O  0.46798826  0.53248052  0.78069899    -2.19360
O939        O  0.99764599  0.91367615  0.80227152    -0.68040
O940        O  0.49999446  0.95154382  0.83839373    -0.52600
C941        C  0.99849568  0.92314808  0.83030657     0.70730
O942        O  0.08586339  0.99743586  0.69893197    -0.60950
O943        O  0.04811040  0.49893535  0.66275274    -0.52920
C944        C  0.07648336  0.99797146  0.67087796     0.72530
O945        O  0.08588997  0.99938828  0.80233337    -0.72340
O946        O  0.04812933  0.99951139  0.83851935    -0.51020
C947        C  0.07651699  0.99954526  0.83038726     0.73920
O948        O  0.99899850  0.91370174  0.69870165    -0.67670
O949        O  0.00127146  0.95175601  0.66274657    -0.54870
C950        C  0.00008914  0.92334054  0.67075152     0.72300
Zr951      Zr  0.99955923  0.93507301  0.75050932     2.77540
O952        O  0.03991727  0.89639277  0.75042136    -0.98420
O953        O  0.45910426  0.89656722  0.74990938    -0.79240
Zr954      Zr  0.06448074  0.99880538  0.75062329     2.70070
O955        O  0.10324382  0.95858015  0.75157997    -0.80490
O956        O  0.10272049  0.53952044  0.74932971    -0.99570
Zr957      Zr  0.00042620  0.49948590  0.69145841     2.21500
Zr958      Zr  0.50037710  0.99935122  0.80987155     2.11130
O959        O  0.03262732  0.96630996  0.78040563    -2.48260
O960        O  0.03261936  0.96637557  0.72069658    -0.80280
O961        O  0.46737754  0.96706703  0.78054926    -0.72480
O962        O  0.03331827  0.53192530  0.72081456    -2.33430
O963        O  0.46730642  0.96711985  0.72066382    -2.29640
O964        O  0.03330101  0.53175557  0.78065856    -0.74240
H965        H  0.45552555  0.54513720  0.79397565     0.77760
H966        H  0.04599583  0.54439245  0.70758962     0.78850
H967        H  0.04511520  0.95358321  0.79358086     0.81070
H968        H  0.45456984  0.95472071  0.70740678     0.78680
H969        H  0.05699145  0.59394576  0.73545405     0.41710
H970        H  0.09687962  0.55346454  0.76632506     0.40690
H971        H  0.09364610  0.94114222  0.74058805     0.40360
H972        H  0.05225634  0.90078599  0.76900038     0.38300
H973        H  0.44178974  0.90638335  0.76088116     0.41430
H974        H  0.40165194  0.94776276  0.73148847     0.36210
H975        H  0.40766754  0.55807883  0.74051873     0.42330
H976        H  0.44885023  0.59823838  0.77081632     0.38740
H977        H  0.02919290  0.87692370  0.75516465     0.43660
H978        H  0.37783090  0.97113516  0.74489935     0.42390
H979        H  0.47169525  0.62205012  0.75656665     0.42520
H980        H  0.12189005  0.52958317  0.75640798     0.42880
O981        O  0.49763803  0.69797522  0.58655570    -0.75990
O982        O  0.99960014  0.66183506  0.54868972    -0.54900
C983        C  0.49823427  0.66992936  0.57708876     0.77740
O984        O  0.41527084  0.80180038  0.49939435    -0.60590
O985        O  0.45316254  0.83783855  0.50033989    -0.53620
C986        C  0.42474734  0.82981728  0.49971492     0.69750
O987        O  0.41459130  0.69829027  0.50192095    -0.75150
O988        O  0.45226779  0.66198959  0.50146422    -0.55710
C989        C  0.42390677  0.67020926  0.50199061     0.75760
O990        O  0.49930178  0.80155112  0.58654968    -0.60290
O991        O  0.50171228  0.83750602  0.54850013    -0.53410
C992        C  0.50043388  0.82950032  0.57691369     0.72350
Zr993      Zr  0.49988892  0.74974377  0.56519776     2.54710
O994        O  0.45990719  0.75046072  0.60419527    -0.80860
O995        O  0.04067776  0.74966793  0.60341482    -0.94280
Zr996      Zr  0.43616643  0.74989310  0.50046049     2.64680
O997        O  0.39726147  0.75045729  0.54058876    -0.99230
O998        O  0.39771550  0.74975145  0.95991315    -0.81290
O999        O  0.46741973  0.71989551  0.53333742    -0.84650
O1000       O  0.46764549  0.77973248  0.53328005    -2.19360
O1001       O  0.08619131  0.80093787  0.50219611    -0.68040
O1002       O  0.04855190  0.83724514  0.50099268    -0.52600
C1003       C  0.07698610  0.82901380  0.00172792     0.70730
O1004       O  0.00320133  0.69767332  0.91527305    -0.60950
O1005       O  0.00057010  0.66166791  0.95317691    -0.52920
C1006       C  0.00233174  0.66966429  0.92477888     0.72530
O1007       O  0.99867473  0.80115665  0.91508640    -0.72340
O1008       O  0.50051990  0.83735433  0.95290636    -0.51020
C1009       C  0.99920206  0.82920802  0.92451566     0.73920
O1010       O  0.08562877  0.69749251  0.50100187    -0.67670
O1011       O  0.04771113  0.66145486  0.50058417    -0.54870
C1012       C  0.07610445  0.66947511  0.00077230     0.72300
Zr1013     Zr  0.06452827  0.74931701  0.50129166     2.77540
O1014       O  0.10346455  0.74885008  0.96117394    -0.98420
O1015       O  0.10278604  0.74865026  0.54200273    -0.79240
Zr1016     Zr  0.00066631  0.74945395  0.93654248     2.70070
O1017       O  0.04061715  0.75142727  0.89756369    -0.80490
O1018       O  0.45979241  0.74697258  0.89852097    -0.99570
Zr1019     Zr  0.00012561  0.69039021  0.50091212     2.21500
Zr1020     Zr  0.50071710  0.80881493  0.50074554     2.11130
O1021       O  0.03339386  0.77923650  0.96821845    -2.48260
O1022       O  0.03304300  0.71951617  0.96842991    -0.80280
O1023       O  0.03291701  0.77946039  0.53376869    -0.72480
O1024       O  0.46771827  0.71976365  0.96795632    -2.33430
O1025       O  0.03265762  0.71963950  0.53385634    -2.29640
O1026       O  0.46812168  0.77968285  0.96796610    -0.74240
H1027       H  0.45502351  0.79303583  0.54576362     0.77760
H1028       H  0.45520483  0.70652810  0.95529001     0.78850
H1029       H  0.04605829  0.79234465  0.95559358     0.81070
H1030       H  0.04510406  0.70638360  0.54655171     0.78680
H1031       H  0.40498244  0.73416564  0.94503476     0.41710
H1032       H  0.44548378  0.76362944  0.90441442     0.40690
H1033       H  0.05801702  0.74002489  0.90670816     0.40360
H1034       H  0.09881267  0.76698897  0.94828950     0.38300
H1035       H  0.09356936  0.76101537  0.55871488     0.41430
H1036       H  0.05267489  0.73084012  0.59912144     0.36210
H1037       H  0.44225608  0.74004015  0.59438511     0.42330
H1038       H  0.40216418  0.76866186  0.55330701     0.38740
H1039       H  0.12275496  0.75425127  0.97189923     0.43660
H1040       H  0.03009573  0.74533546  0.62305758     0.42390
H1041       H  0.37804548  0.75602455  0.52981509     0.42520
H1042       H  0.46940776  0.75423998  0.87925227     0.42880
O1043       O  0.30168958  0.58553007  0.50246229    -0.75990
O1044       O  0.33790984  0.54778612  0.50135115    -0.54900
C1045       C  0.32973254  0.57617680  0.50220629     0.77740
O1046       O  0.19862645  0.99827284  0.58621482    -0.60590
O1047       O  0.16253350  0.49884268  0.54834683    -0.53620
C1048       C  0.17061575  0.49831882  0.57677169     0.69750
O1049       O  0.30207926  0.00145533  0.58634579    -0.75150
O1050       O  0.33815756  0.00054814  0.54847497    -0.55710
C1051       C  0.33008775  0.50135651  0.57689680     0.75760
O1052       O  0.19827962  0.58506437  0.50053334    -0.60290
O1053       O  0.16234050  0.54704114  0.50025869    -0.53410
C1054       C  0.17031234  0.57550006  0.50039958     0.72350
Zr1055     Zr  0.25008584  0.56397584  0.50077920     2.54710
O1056       O  0.24912651  0.60282043  0.54098685    -0.80860
O1057       O  0.25005012  0.60246909  0.96019425    -0.94280
Zr1058     Zr  0.25037731  0.99971058  0.56503440     2.64680
O1059       O  0.24977377  0.54006560  0.60378492    -0.99230
O1060       O  0.25116196  0.95944427  0.60380415    -0.81290
O1061       O  0.28010738  0.53245452  0.53339828    -0.84650
O1062       O  0.22036859  0.53226643  0.53344736    -2.19360
O1063       O  0.19875265  0.50032345  0.91505539    -0.68040
O1064       O  0.16264304  0.49961631  0.95288806    -0.52600
C1065       C  0.17072595  0.00002218  0.92447284     0.70730
O1066       O  0.30248486  0.91432548  0.49949851    -0.60950
O1067       O  0.33844919  0.95229893  0.50029725    -0.52920
C1068       C  0.33055320  0.92395540  0.99972278     0.72530
O1069       O  0.19910824  0.91378370  0.50158215    -0.72340
O1070       O  0.16287895  0.95152770  0.50098836    -0.51020
C1071       C  0.17113345  0.92311938  0.00144550     0.73920
O1072       O  0.30214939  0.49865605  0.91515241    -0.67670
O1073       O  0.33823374  0.99961589  0.95300383    -0.54870
C1074       C  0.33015162  0.99892682  0.92458085     0.72300
Zr1075     Zr  0.25045784  0.49975598  0.93644664     2.77540
O1076       O  0.25045942  0.95984698  0.89723491    -0.98420
O1077       O  0.25117459  0.54066360  0.89838853    -0.79240
Zr1078     Zr  0.25069753  0.93541599  0.50078720     2.70070
O1079       O  0.24999086  0.89625353  0.96092553    -0.80490
O1080       O  0.25224208  0.89755561  0.54186987    -0.99570
Zr1081     Zr  0.30953038  0.99991210  0.50072887     2.21500
Zr1082     Zr  0.19125910  0.49942943  0.50065504     2.11130
O1083       O  0.22080069  0.96685774  0.96799508    -2.48260
O1084       O  0.28044820  0.96718151  0.96806352    -0.80280
O1085       O  0.22034319  0.53228634  0.96803690    -0.72480
O1086       O  0.28043044  0.96712080  0.53347424    -2.33430
O1087       O  0.28015214  0.53261804  0.96803424    -2.29640
O1088       O  0.22060515  0.96690772  0.53339983    -0.74240
H1089       H  0.20710936  0.54480517  0.54604666     0.77760
H1090       H  0.29371795  0.95458520  0.54603420     0.78850
H1091       H  0.20770464  0.95415063  0.95539714     0.81070
H1092       H  0.29330791  0.54525438  0.95544977     0.78680
H1093       H  0.26556907  0.94383438  0.59571665     0.41710
H1094       H  0.23512612  0.90334073  0.55565728     0.40690
H1095       H  0.26004905  0.90609482  0.94308196     0.40360
H1096       H  0.23244940  0.94687502  0.90206108     0.38300
H1097       H  0.23831615  0.55709214  0.90742929     0.41430
H1098       H  0.26858445  0.59796694  0.94785002     0.36210
H1099       H  0.25999589  0.59318195  0.55846875     0.42330
H1100       H  0.23134945  0.55249056  0.59905005     0.38740
H1101       H  0.24476430  0.97065285  0.87806072     0.43660
H1102       H  0.25484224  0.62199141  0.97083552     0.42390
H1103       H  0.24462164  0.52932591  0.62314503     0.42520
H1104       H  0.24545213  0.87818864  0.53207047     0.42880
C1105       C  0.38625407  0.90835291  0.99795682    -0.14050
C1106       C  0.35503921  0.90025232  0.99953303     0.08100
C1107       C  0.34711405  0.86886277  0.50113468    -0.14050
C1108       C  0.36977207  0.84627870  0.50115335    -0.14050
C1109       C  0.40098241  0.85424193  0.49955716     0.08100
C1110       C  0.40904475  0.88564348  0.99797074    -0.14050
H1111       H  0.39310516  0.93222008  0.99667892     0.12090
H1112       H  0.32337222  0.86168585  0.50250004     0.12090
H1113       H  0.36269634  0.82248143  0.50253481     0.12090
H1114       H  0.43285442  0.89260325  0.99669520     0.12090
C1115       C  0.36884625  0.65387173  0.50346784    -0.14050
C1116       C  0.40008433  0.64587118  0.50255609     0.08100
C1117       C  0.40808477  0.61456994  0.50195633    -0.14050
C1118       C  0.38534363  0.59187010  0.50202884    -0.14050
C1119       C  0.35409931  0.59996955  0.50270657     0.08100
C1120       C  0.34619772  0.63126435  0.50354102    -0.14050
H1121       H  0.36175065  0.67770247  0.50400917     0.12090
H1122       H  0.43191129  0.60756560  0.50127682     0.12090
H1123       H  0.39227303  0.56799393  0.50140104     0.12090
H1124       H  0.32241552  0.63843343  0.50411393     0.12090
C1125       C  0.09280236  0.88465841  0.00183671    -0.14050
C1126       C  0.10082181  0.85335379  0.00186437     0.08100
C1127       C  0.13207508  0.84536455  0.00184208    -0.14050
C1128       C  0.15471294  0.86799028  0.00176407    -0.14050
C1129       C  0.14678580  0.89929313  0.00169628     0.08100
C1130       C  0.11553032  0.90737414  0.00175445    -0.14050
H1131       H  0.06896425  0.89165667  0.00185171     0.12090
H1132       H  0.13918489  0.82153179  0.00181453     0.12090
H1133       H  0.17850495  0.86083169  0.00170267     0.12090
H1134       H  0.10857878  0.93125172  0.00170813     0.12090
C1135       C  0.09217037  0.61413039  0.99532680    -0.14050
C1136       C  0.09980736  0.64502918  0.00090036     0.08100
C1137       C  0.13066212  0.65262150  0.50654561    -0.14050
C1138       C  0.15331730  0.63002974  0.50642717    -0.14050
C1139       C  0.14583542  0.59916726  0.50065867     0.08100
C1140       C  0.11494792  0.59141745  0.99520903    -0.14050
H1141       H  0.06865423  0.60752053  0.99080053     0.12090
H1142       H  0.13739967  0.67610793  0.51118800     0.12090
H1143       H  0.17677050  0.63683893  0.51099408     0.12090
H1144       H  0.10841417  0.56786746  0.99060312     0.12090
C1145       C  0.40855947  0.49867605  0.88617608    -0.14050
C1146       C  0.40052702  0.49848662  0.85487470     0.08100
C1147       C  0.36927450  0.49822372  0.84690470    -0.14050
C1148       C  0.34663731  0.99826418  0.86951507    -0.14050
C1149       C  0.35455469  0.99857552  0.90081196     0.08100
C1150       C  0.38581098  0.99872297  0.90889769    -0.14050
H1151       H  0.43240162  0.49887711  0.89315305     0.12090
H1152       H  0.36214036  0.49806309  0.82308210     0.12090
H1153       H  0.32285168  0.99813824  0.86234122     0.12090
H1154       H  0.39274757  0.99894499  0.93277698     0.12090
C1155       C  0.15418214  0.99804339  0.86944222    -0.14050
C1156       C  0.14632182  0.99995709  0.90069463     0.08100
C1157       C  0.11511865  0.50167256  0.90874043    -0.14050
C1158       C  0.09236404  0.50153065  0.88602362    -0.14050
C1159       C  0.10032108  0.99966952  0.85477090     0.08100
C1160       C  0.13153347  0.99790594  0.84683087    -0.14050
H1161       H  0.17793444  0.99656081  0.86231276     0.12090
H1162       H  0.10823227  0.50319500  0.93258538     0.12090
H1163       H  0.06855690  0.50294762  0.89297275     0.12090
H1164       H  0.13860790  0.99635315  0.82304165     0.12090
C1165       C  0.09224184  0.99677895  0.61519438    -0.14050
C1166       C  0.10026207  0.99771367  0.64648621     0.08100
C1167       C  0.13150052  0.49868202  0.65444713    -0.14050
C1168       C  0.15412469  0.49879743  0.63183047    -0.14050
C1169       C  0.14621854  0.49792795  0.60054075     0.08100
C1170       C  0.11497804  0.99687960  0.59246589    -0.14050
H1171       H  0.06840868  0.99598731  0.60822705     0.12090
H1172       H  0.13861590  0.49950473  0.67826218     0.12090
H1173       H  0.17789756  0.49969221  0.63899405     0.12090
H1174       H  0.10805508  0.99616234  0.56859204     0.12090
C1175       C  0.38568606  0.99938800  0.59258681    -0.14050
C1176       C  0.35453071  0.50204978  0.60061703     0.08100
C1177       C  0.34675878  0.50507349  0.63180232    -0.14050
C1178       C  0.36942372  0.50512551  0.65439834    -0.14050
C1179       C  0.40055621  0.50215187  0.64650177     0.08100
C1180       C  0.40845248  0.99943225  0.61528445    -0.14050
H1181       H  0.39250427  0.99700738  0.56879183     0.12090
H1182       H  0.32305623  0.50731731  0.63889822     0.12090
H1183       H  0.36241614  0.50738509  0.67815131     0.12090
H1184       H  0.43219635  0.99708480  0.60836954     0.12090
C1185       C  0.01092257  0.62964034  0.84797525    -0.14050
C1186       C  0.50337019  0.59910604  0.85519878     0.08100
C1187       C  0.49614201  0.59173382  0.88580502    -0.14050
C1188       C  0.49607934  0.61450470  0.90854012    -0.14050
C1189       C  0.00324721  0.64512250  0.90114385     0.08100
C1190       C  0.01086682  0.65231922  0.87062066    -0.14050
H1191       H  0.01685975  0.63612638  0.82471812     0.12090
H1192       H  0.49008969  0.56846288  0.89213004     0.12090
H1193       H  0.48998630  0.60819378  0.93180387     0.12090
H1194       H  0.01676942  0.67558002  0.86411637     0.12090
C1195       C  0.00539920  0.90694000  0.88534158    -0.14050
C1196       C  0.99791291  0.89949943  0.85479943     0.08100
C1197       C  0.49029440  0.86895413  0.84765564    -0.14050
C1198       C  0.49049187  0.84633640  0.87033895    -0.14050
C1199       C  0.99831996  0.85362583  0.90080315     0.08100
C1200       C  0.00559596  0.88424277  0.90810485    -0.14050
H1201       H  0.01152335  0.93021942  0.89160055     0.12090
H1202       H  0.48416108  0.86242914  0.82444880     0.12090
H1203       H  0.48448035  0.82306539  0.86393228     0.12090
H1204       H  0.01185378  0.89061103  0.93132095     0.12090
C1205       C  0.01391523  0.90528605  0.61777056    -0.14050
C1206       C  0.99973685  0.89985142  0.64624617     0.08100
C1207       C  0.48539213  0.87145122  0.65141017    -0.14050
C1208       C  0.48549033  0.84878611  0.62875118    -0.14050
C1209       C  0.49993944  0.85399866  0.60040886     0.08100
C1210       C  0.01401519  0.88253175  0.59502332    -0.14050
H1211       H  0.02536412  0.92690281  0.61330972     0.12090
H1212       H  0.47393632  0.86679552  0.67298286     0.12090
H1213       H  0.47409890  0.82717079  0.63336537     0.12090
H1214       H  0.02553059  0.88703687  0.57345107     0.12090
C1215       C  0.00403631  0.59190788  0.61581010    -0.14050
C1216       C  0.49798518  0.59943252  0.64664240     0.08100
C1217       C  0.49129675  0.63012447  0.65413096    -0.14050
C1218       C  0.49107795  0.65280022  0.63151020    -0.14050
C1219       C  0.49754240  0.64543658  0.60074931     0.08100
C1220       C  0.00382327  0.61466719  0.59310739    -0.14050
H1221       H  0.00935007  0.56850722  0.60925652     0.12090
H1222       H  0.48624398  0.63673697  0.67757146     0.12090
H1223       H  0.48589119  0.67618537  0.63822301     0.12090
H1224       H  0.00899425  0.60820615  0.56965233     0.12090
O1225       O  0.91493610  0.00207900  0.19894529    -0.75990
O1226       O  0.95269393  0.00016657  0.16279159    -0.54900
C1227       C  0.92432815  0.00149014  0.17090163     0.77740
O1228       O  0.00329810  0.08493914  0.30267183    -0.60590
O1229       O  0.00095965  0.04703255  0.33868684    -0.53620
C1230       C  0.00254959  0.07543601  0.33067974     0.69750
O1231       O  0.99876409  0.08516493  0.19911733    -0.75150
O1232       O  0.50004987  0.04732093  0.16292247    -0.55710
C1233       C  0.99896487  0.07572587  0.17106326     0.75760
O1234       O  0.91487635  0.99888343  0.30242215    -0.60290
O1235       O  0.95268921  0.49906182  0.33858059    -0.53410
C1236       C  0.92428810  0.99878122  0.33047030     0.72350
Zr1237     Zr  0.93616615  0.00011676  0.25069986     2.54710
O1238       O  0.89807134  0.04096962  0.25198995    -0.80860
O1239       O  0.89708144  0.46017390  0.24999501    -0.94100
Zr1240     Zr  0.00094101  0.06377631  0.25083067     2.64680
O1241       O  0.96076848  0.10264512  0.25198360    -0.99230
O1242       O  0.54129126  0.10241099  0.24954174    -0.81290
O1243       O  0.96812117  0.03241735  0.22084942    -0.84650
O1244       O  0.96798617  0.03247878  0.28069800    -2.19360
O1245       O  0.49765596  0.41366938  0.30227167    -0.68040
O1246       O  0.00000416  0.45153387  0.33839655    -0.52600
C1247       C  0.49850483  0.42313789  0.33030821     0.70730
O1248       O  0.58586759  0.49743413  0.19892364    -0.60950
O1249       O  0.54811260  0.99894050  0.16275067    -0.52920
C1250       C  0.57648741  0.49797217  0.17086962     0.72530
O1251       O  0.58589877  0.49939221  0.30232428    -0.72340
O1252       O  0.54813915  0.49950783  0.33851163    -0.51020
C1253       C  0.57652610  0.49954677  0.33037804     0.73920
O1254       O  0.49900813  0.41370931  0.19870249    -0.67670
O1255       O  0.50127962  0.45176628  0.16274938    -0.54870
C1256       C  0.50010016  0.42335112  0.17075389     0.72300
Zr1257     Zr  0.49956640  0.43507377  0.25051017     2.77540
O1258       O  0.53992482  0.39639389  0.25041785    -0.98420
O1259       O  0.95911169  0.39656774  0.24990753    -0.79240
Zr1260     Zr  0.56448728  0.49880629  0.25061664     2.70070
O1261       O  0.60325052  0.45858108  0.25156896    -0.80490
O1262       O  0.60271701  0.03952168  0.24933221    -0.99570
Zr1263     Zr  0.50042692  0.99949440  0.19145722     2.21500
Zr1264     Zr  0.00038473  0.49934365  0.30987104     2.11130
O1265       O  0.53263784  0.46630823  0.28040278    -2.48260
O1266       O  0.53262208  0.46637923  0.22069360    -0.80280
O1267       O  0.96738215  0.46706248  0.28055163    -0.72480
O1268       O  0.53331943  0.03193070  0.22081334    -2.33430
O1269       O  0.96731508  0.46712472  0.22066586    -2.29640
O1270       O  0.53329262  0.03175106  0.28065703    -0.74240
H1271       H  0.95552349  0.04513512  0.29397502     0.77760
H1272       H  0.54599741  0.04439830  0.20758924     0.78850
H1273       H  0.54512662  0.45358119  0.29357669     0.81070
H1274       H  0.95457825  0.45472588  0.20740917     0.78680
H1275       H  0.55698911  0.09394791  0.23545789     0.41710
H1276       H  0.59687489  0.05346525  0.26632757     0.40690
H1277       H  0.59365019  0.44114189  0.24058131     0.40360
H1278       H  0.55226352  0.40078457  0.26899772     0.38300
H1279       H  0.94179871  0.40638122  0.26088413     0.41430
H1280       H  0.90165961  0.44776172  0.23149640     0.36210
H1281       H  0.90766388  0.05807856  0.24051540     0.42330
H1282       H  0.94884736  0.09823680  0.27081930     0.38740
H1283       H  0.52920054  0.37692404  0.25515815     0.43660
H1284       H  0.87783808  0.47113468  0.24490557     0.42390
H1285       H  0.97169031  0.12204967  0.25656820     0.42520
H1286       H  0.62188624  0.02958443  0.25641140     0.42880
O1287       O  0.99764803  0.19800135  0.08655637    -0.75990
O1288       O  0.49957983  0.16186385  0.04868660    -0.54900
C1289       C  0.99822762  0.16995529  0.07708747     0.77740
O1290       O  0.91536410  0.30191993  0.99939066    -0.60590
O1291       O  0.95327205  0.33793902  0.00034543    -0.53620
C1292       C  0.92485307  0.32993332  0.99971691     0.69750
O1293       O  0.91456989  0.19839689  0.00192080    -0.75150
O1294       O  0.95222910  0.16207664  0.00146327    -0.55710
C1295       C  0.92387218  0.17031102  0.00198971     0.75760
O1296       O  0.99933774  0.30157450  0.08655117    -0.60290
O1297       O  0.00178736  0.33753123  0.04850562    -0.53410
C1298       C  0.00048805  0.32952306  0.07691729     0.72350
Zr1299     Zr  0.99991326  0.24977178  0.06519674     2.54710
O1300       O  0.95992352  0.25049267  0.10418579    -0.80860
O1301       O  0.54069563  0.24968664  0.10342071    -0.94280
Zr1302     Zr  0.93619377  0.24998135  0.00045444     2.64680
O1303       O  0.89726515  0.25060836  0.04055897    -0.99230
O1304       O  0.89767452  0.24961718  0.45993267    -0.81290
O1305       O  0.96742309  0.21995376  0.03333151    -0.84650
O1306       O  0.96769429  0.27978873  0.03327897    -2.19360
O1307       O  0.58626388  0.30092186  0.00219666    -0.68040
O1308       O  0.54863954  0.33724437  0.00099272    -0.52600
C1309       C  0.57690543  0.32902539  0.50172576     0.70730
O1310       O  0.50318997  0.19764701  0.41527387    -0.60950
O1311       O  0.50059134  0.16163795  0.45317707    -0.52920
C1312       C  0.50233973  0.16963776  0.42477953     0.72530
O1313       O  0.49864597  0.30113070  0.41508488    -0.72340
O1314       O  0.00045546  0.33732678  0.45290801    -0.51020
C1315       C  0.49915980  0.32918264  0.42451542     0.73920
O1316       O  0.58561755  0.19748087  0.00100448    -0.67670
O1317       O  0.54768394  0.16145997  0.00058422    -0.54870
C1318       C  0.57612490  0.16948135  0.50077089     0.72300
Zr1319     Zr  0.56455703  0.24931762  0.00129339     2.77540
O1320       O  0.60343538  0.24887589  0.46117177    -0.98420
O1321       O  0.60281426  0.24862352  0.04200466    -0.79240
Zr1322     Zr  0.50063539  0.24942432  0.43654270     2.70070
O1323       O  0.54058840  0.25140004  0.39756633    -0.80490
O1324       O  0.95976414  0.24694297  0.39851830    -0.99570
Zr1325     Zr  0.50011541  0.19042651  0.00091101     2.21500
Zr1326     Zr  0.00078632  0.30885010  0.00074676     2.11130
O1327       O  0.53334606  0.27921999  0.46822017    -2.48260
O1328       O  0.53302984  0.21950040  0.46842782    -0.80280
O1329       O  0.53296327  0.27947469  0.03377381    -0.72480
O1330       O  0.96770949  0.21970612  0.46795649    -2.33430
O1331       O  0.53266665  0.21965502  0.03385440    -2.29640
O1332       O  0.96806939  0.27962472  0.46797002    -0.74240
H1333       H  0.95507979  0.29310131  0.04576316     0.77760
H1334       H  0.95520469  0.20646286  0.45529055     0.78850
H1335       H  0.54600322  0.29233488  0.45559643     0.81070
H1336       H  0.54510536  0.20639108  0.04655009     0.78680
H1337       H  0.90499072  0.23408951  0.44501770     0.41710
H1338       H  0.94545819  0.26360381  0.40440703     0.40690
H1339       H  0.55799501  0.24001491  0.40671945     0.40360
H1340       H  0.59877407  0.26701475  0.44829071     0.38300
H1341       H  0.59360456  0.26099152  0.05871852     0.41430
H1342       H  0.55269419  0.23086062  0.09912340     0.36210
H1343       H  0.94225692  0.24011897  0.09435390     0.42330
H1344       H  0.90220314  0.26879197  0.05329369     0.38740
H1345       H  0.62272308  0.25428514  0.47189791     0.43660
H1346       H  0.53011058  0.24534773  0.12306041     0.42390
H1347       H  0.87806921  0.25622989  0.02977757     0.42520
H1348       H  0.96938269  0.25420470  0.37924903     0.42880
O1349       O  0.80165436  0.08561453  0.00245684    -0.75990
O1350       O  0.83788996  0.04788577  0.00134504    -0.54900
C1351       C  0.82970108  0.07627338  0.00219965     0.77740
O1352       O  0.69863803  0.49829178  0.08621049    -0.60590
O1353       O  0.66254564  0.99884078  0.04834760    -0.53620
C1354       C  0.67062681  0.99832403  0.07677290     0.69750
O1355       O  0.80208918  0.50148663  0.08635089    -0.75150
O1356       O  0.83816981  0.50061893  0.04848109    -0.55710
C1357       C  0.83009708  0.00140310  0.07689525     0.75760
O1358       O  0.69825087  0.08507213  0.00053498    -0.60290
O1359       O  0.66232707  0.04703458  0.00026292    -0.53410
C1360       C  0.67028778  0.07549661  0.00040376     0.72350
Zr1361     Zr  0.75006789  0.06401742  0.00077914     2.54710
O1362       O  0.74908676  0.10285791  0.04099028    -0.80860
O1363       O  0.75008632  0.10242705  0.46019434    -0.94280
Zr1364     Zr  0.75039160  0.49974788  0.06503324     2.64680
O1365       O  0.74978016  0.04009239  0.10379377    -0.99230
O1366       O  0.75117333  0.45947187  0.10379287    -0.81290
O1367       O  0.78010438  0.03251239  0.03340027    -0.84650
O1368       O  0.72036740  0.03229162  0.03344809    -2.19360
O1369       O  0.69873703  0.00030376  0.41505668    -0.68040
O1370       O  0.66262562  0.99961934  0.45288846    -0.52600
C1371       C  0.67072612  0.50001776  0.42446570     0.70730
O1372       O  0.80257813  0.41441950  0.99949741    -0.60950
O1373       O  0.83852220  0.45241153  0.00030048    -0.52920
C1374       C  0.83046910  0.42384730  0.49972552     0.72530
O1375       O  0.69918795  0.41378863  0.00157980    -0.72340
O1376       O  0.66294073  0.45151637  0.00098748    -0.51020
C1377       C  0.67106319  0.42312616  0.50144166     0.73920
O1378       O  0.80213322  0.99862340  0.41515074    -0.67670
O1379       O  0.83823081  0.49954657  0.45301241    -0.54870
C1380       C  0.83015181  0.49888166  0.42458783     0.72300
Zr1381     Zr  0.75044012  0.99971600  0.43644769     2.77540
O1382       O  0.75045848  0.45981068  0.39723199    -0.98420
O1383       O  0.75116048  0.04063113  0.39839762    -0.79240
Zr1384     Zr  0.75076282  0.43545616  0.00078399     2.70070
O1385       O  0.74990101  0.39621583  0.46092747    -0.80490
O1386       O  0.75233553  0.39759082  0.04186100    -0.99570
Zr1387     Zr  0.80955059  0.49999069  0.00073056     2.21500
Zr1388     Zr  0.69127437  0.99943928  0.00065726     2.11130
O1389       O  0.72076970  0.46683461  0.46799275    -2.48260
O1390       O  0.78041660  0.46711889  0.46806753    -0.80280
O1391       O  0.72033936  0.03225993  0.46803833    -0.72480
O1392       O  0.78046914  0.46718002  0.03347333    -2.33430
O1393       O  0.78014901  0.03255959  0.46803725    -2.29640
O1394       O  0.72064458  0.46692917  0.03339386    -0.74240
H1395       H  0.70710239  0.04482321  0.04604829     0.77760
H1396       H  0.79376309  0.45465113  0.04603314     0.78850
H1397       H  0.70766794  0.45413468  0.45539326     0.81070
H1398       H  0.79331114  0.04519045  0.45545386     0.78680
H1399       H  0.76557932  0.44386315  0.09570106     0.41710
H1400       H  0.73521749  0.40336336  0.05565104     0.40690
H1401       H  0.76000015  0.40603750  0.44309624     0.40360
H1402       H  0.73244435  0.44684222  0.40205222     0.38300
H1403       H  0.73831151  0.05706303  0.40744582     0.41430
H1404       H  0.76862574  0.09792222  0.44785877     0.36210
H1405       H  0.75996082  0.09322370  0.05847162     0.42330
H1406       H  0.73135474  0.05251639  0.09906062     0.38740
H1407       H  0.74477060  0.47061996  0.37805756     0.43660
H1408       H  0.75487631  0.12194869  0.47083781     0.42390
H1409       H  0.74462771  0.02934713  0.12315073     0.42520
H1410       H  0.74555638  0.37822108  0.03205953     0.42880
C1411       C  0.88615663  0.40822900  0.49795723    -0.14050
C1412       C  0.85494196  0.40013381  0.49953272     0.08100
C1413       C  0.84722374  0.36898131  0.00114385    -0.14050
C1414       C  0.86988422  0.34640170  0.00116312    -0.14050
C1415       C  0.90109364  0.35436599  0.99956260     0.08100
C1416       C  0.90894136  0.38551805  0.49796941    -0.14050
H1417       H  0.89301332  0.43209462  0.49668195     0.12090
H1418       H  0.82348387  0.36179882  0.00251198     0.12090
H1419       H  0.86280919  0.32260453  0.00254779     0.12090
H1420       H  0.93275145  0.39247638  0.49669551     0.12090
C1421       C  0.86880495  0.15397910  0.00345935    -0.14050
C1422       C  0.90004351  0.14597890  0.00255307     0.08100
C1423       C  0.90804428  0.11467795  0.00195541    -0.14050
C1424       C  0.88530561  0.09197767  0.00202570    -0.14050
C1425       C  0.85406100  0.10007396  0.00269906     0.08100
C1426       C  0.84615654  0.13136892  0.00353032    -0.14050
H1427       H  0.86171031  0.17781021  0.00399814     0.12090
H1428       H  0.93187072  0.10767300  0.00127965     0.12090
H1429       H  0.89223814  0.06810237  0.00140036     0.12090
H1430       H  0.82237329  0.13853477  0.00409947     0.12090
C1431       C  0.59272021  0.38467577  0.50183081    -0.14050
C1432       C  0.60073756  0.35337021  0.50186070     0.08100
C1433       C  0.63199052  0.34538001  0.50183897    -0.14050
C1434       C  0.65462971  0.36800300  0.50176022    -0.14050
C1435       C  0.64670699  0.39930674  0.50169108     0.08100
C1436       C  0.61545161  0.40739081  0.50174777    -0.14050
H1437       H  0.56888219  0.39167438  0.50184489     0.12090
H1438       H  0.63910034  0.32154726  0.50181277     0.12090
H1439       H  0.67842051  0.36084046  0.50169974     0.12090
H1440       H  0.60850366  0.43126941  0.50170018     0.12090
C1441       C  0.59219626  0.11414126  0.49532382    -0.14050
C1442       C  0.59983335  0.14504035  0.50089510     0.08100
C1443       C  0.63063098  0.15260863  0.00656037    -0.14050
C1444       C  0.65328546  0.13001853  0.00644205    -0.14050
C1445       C  0.64580555  0.09915720  0.00066712     0.08100
C1446       C  0.61497229  0.09142826  0.49520680    -0.14050
H1447       H  0.56867997  0.10753025  0.49079991     0.12090
H1448       H  0.63736922  0.17609408  0.01120689     0.12090
H1449       H  0.67673749  0.13682904  0.01101315     0.12090
H1450       H  0.60843620  0.06787835  0.49060369     0.12090
C1451       C  0.90854691  0.99866619  0.38617582    -0.14050
C1452       C  0.90051636  0.99848525  0.35487376     0.08100
C1453       C  0.86926380  0.99822251  0.34690300    -0.14050
C1454       C  0.84664319  0.49825143  0.36952205    -0.14050
C1455       C  0.85455803  0.49854763  0.40081978     0.08100
C1456       C  0.88581450  0.49869901  0.40890648    -0.14050
H1457       H  0.93238875  0.99886834  0.39315385     0.12090
H1458       H  0.86213067  0.99806952  0.32308007     0.12090
H1459       H  0.82285801  0.49812508  0.36234679     0.12090
H1460       H  0.89274976  0.49891255  0.43278622     0.12090
C1461       C  0.65418856  0.49804725  0.36943397    -0.14050
C1462       C  0.64632550  0.49995964  0.40068577     0.08100
C1463       C  0.61510512  0.00167597  0.40873927    -0.14050
C1464       C  0.59235209  0.00153469  0.38602158    -0.14050
C1465       C  0.60032914  0.49967374  0.35476075     0.08100
C1466       C  0.63154157  0.49791072  0.34682153    -0.14050
H1467       H  0.67794129  0.49656396  0.36230603     0.12090
H1468       H  0.60821753  0.00319772  0.43258391     0.12090
H1469       H  0.56854460  0.00295197  0.39296946     0.12090
H1470       H  0.63861702  0.49635788  0.32303259     0.12090
C1471       C  0.59224922  0.49677669  0.11518496    -0.14050
C1472       C  0.60026725  0.49771210  0.14647749     0.08100
C1473       C  0.63150488  0.99867901  0.15444754    -0.14050
C1474       C  0.65413102  0.99879498  0.13183200    -0.14050
C1475       C  0.64622752  0.99792709  0.10054151     0.08100
C1476       C  0.61498729  0.49687770  0.09245736    -0.14050
H1477       H  0.56841639  0.49598503  0.10821650     0.12090
H1478       H  0.63861874  0.99950142  0.17826304     0.12090
H1479       H  0.67790343  0.99968983  0.13899705     0.12090
H1480       H  0.60806578  0.49616122  0.06858306     0.12090
C1481       C  0.88569299  0.49941305  0.09259402    -0.14050
C1482       C  0.85453819  0.00208011  0.10061589     0.08100
C1483       C  0.84676451  0.00509108  0.13180178    -0.14050
C1484       C  0.86942783  0.00513003  0.15439849    -0.14050
C1485       C  0.90055991  0.00215546  0.14650155     0.08100
C1486       C  0.90845799  0.49944407  0.11529220    -0.14050
H1487       H  0.89251183  0.49704168  0.06879830     0.12090
H1488       H  0.82306206  0.00733704  0.13889741     0.12090
H1489       H  0.86241948  0.00738276  0.17815188     0.12090
H1490       H  0.93220186  0.49709740  0.10837705     0.12090
C1491       C  0.51093449  0.12962489  0.34797541    -0.14050
C1492       C  0.00337707  0.09909163  0.35519634     0.08100
C1493       C  0.99614831  0.09171534  0.38580109    -0.14050
C1494       C  0.99608859  0.11448253  0.40853822    -0.14050
C1495       C  0.50325956  0.14509963  0.40114435     0.08100
C1496       C  0.51088134  0.15230030  0.37062297    -0.14050
H1497       H  0.51687269  0.13611276  0.32471902     0.12090
H1498       H  0.99009240  0.06844452  0.39212318     0.12090
H1499       H  0.98999340  0.10816995  0.43180098     0.12090
H1500       H  0.51678658  0.17556137  0.36412195     0.12090
C1501       C  0.50538694  0.40692053  0.38534743    -0.14050
C1502       C  0.49791584  0.39948455  0.35480007     0.08100
C1503       C  0.99030031  0.36893918  0.34765076    -0.14050
C1504       C  0.99048307  0.34631872  0.37033292    -0.14050
C1505       C  0.49829266  0.35360409  0.40080288     0.08100
C1506       C  0.50556860  0.38422045  0.40810974    -0.14050
H1507       H  0.51150881  0.43019907  0.39161188     0.12090
H1508       H  0.98417898  0.36241623  0.32444022     0.12090
H1509       H  0.98447368  0.32304860  0.36392103     0.12090
H1510       H  0.51181431  0.39058618  0.43132980     0.12090
C1511       C  0.51395278  0.40530195  0.11778284    -0.14050
C1512       C  0.49975656  0.39986586  0.14624872     0.08100
C1513       C  0.98540625  0.37146766  0.15140438    -0.14050
C1514       C  0.98551681  0.34880423  0.12874525    -0.14050
C1515       C  0.99998478  0.35401772  0.10041282     0.08100
C1516       C  0.51406559  0.38254929  0.09503569    -0.14050
H1517       H  0.52540615  0.42691810  0.11333034     0.12090
H1518       H  0.97393725  0.36681247  0.17297022     0.12090
H1519       H  0.97412022  0.32718988  0.13335135     0.12090
H1520       H  0.52559413  0.38705449  0.07347051     0.12090
C1521       C  0.50402306  0.09192592  0.11580388    -0.14050
C1522       C  0.99798026  0.09944755  0.14663898     0.08100
C1523       C  0.99129813  0.13014077  0.15413024    -0.14050
C1524       C  0.99107797  0.15281942  0.13151076    -0.14050
C1525       C  0.99753428  0.14545864  0.10074724     0.08100
C1526       C  0.50380830  0.11468811  0.09310241    -0.14050
H1527       H  0.50933163  0.06852506  0.10924692     0.12090
H1528       H  0.98625177  0.13675229  0.17757236     0.12090
H1529       H  0.98589680  0.17620492  0.13822666     0.12090
H1530       H  0.50897338  0.10822837  0.06964571     0.12090
O1531       O  0.91493249  0.00208195  0.69894138    -0.75990
O1532       O  0.95269096  0.00016330  0.66278889    -0.54900
C1533       C  0.92432478  0.00149067  0.67089775     0.77740
O1534       O  0.00328736  0.08494623  0.80267361    -0.60590
O1535       O  0.00094976  0.04704216  0.83869071    -0.53620
C1536       C  0.00253718  0.07544606  0.83068280     0.69750
O1537       O  0.99876364  0.08515630  0.69911921    -0.75150
O1538       O  0.50004978  0.04731003  0.66292621    -0.55710
C1539       C  0.99896557  0.07571457  0.67106647     0.75760
O1540       O  0.91487274  0.99887943  0.80241744    -0.60290
O1541       O  0.95269249  0.49906479  0.83857905    -0.53410
C1542       C  0.92428478  0.99878011  0.83046527     0.72350
Zr1543     Zr  0.93616248  0.00011638  0.75069664     2.54710
O1544       O  0.89806784  0.04096944  0.75198582    -0.80860
O1545       O  0.89708082  0.46017368  0.74999612    -0.94100
Zr1546     Zr  0.00093764  0.06377549  0.75083303     2.64680
O1547       O  0.96076500  0.10264444  0.75197949    -0.99230
O1548       O  0.54128786  0.10241006  0.74954234    -0.81290
O1549       O  0.96812078  0.03241422  0.72084879    -0.84650
O1550       O  0.96797978  0.03248063  0.78069711    -2.19360
O1551       O  0.49765478  0.41367627  0.80227168    -0.68040
O1552       O  0.00000595  0.45154375  0.83839390    -0.52600
C1553       C  0.49850594  0.42314809  0.83030671     0.70730
O1554       O  0.58586571  0.49743538  0.69892741    -0.60950
O1555       O  0.54810954  0.99893536  0.66275571    -0.52920
C1556       C  0.57648449  0.49797116  0.67087390     0.72530
O1557       O  0.58590100  0.49938873  0.80232767    -0.72340
O1558       O  0.54814179  0.49951170  0.83851517    -0.51020
C1559       C  0.57652907  0.49954579  0.83038184     0.73920
O1560       O  0.49900300  0.41370174  0.69870175    -0.67670
O1561       O  0.50127345  0.45175611  0.66274662    -0.54870
C1562       C  0.50009205  0.42334062  0.67075158     0.72300
Zr1563     Zr  0.49956631  0.43507299  0.75050943     2.77540
O1564       O  0.53992578  0.39639420  0.75041968    -0.98420
O1565       O  0.95911288  0.39656558  0.74991135    -0.79240
Zr1566     Zr  0.56448723  0.49880550  0.75061979     2.70070
O1567       O  0.60325086  0.45858070  0.75157362    -0.80490
O1568       O  0.60271425  0.03952019  0.74933712    -0.99570
Zr1569     Zr  0.50042335  0.99948588  0.69145822     2.21500
Zr1570     Zr  0.00038721  0.49935118  0.80987171     2.11130
O1571       O  0.53263589  0.46630992  0.78040410    -2.48260
O1572       O  0.53262427  0.46637578  0.72069476    -0.80280
O1573       O  0.96738616  0.46706698  0.78055111    -0.72480
O1574       O  0.53331351  0.03192536  0.72081637    -2.33430
O1575       O  0.96731132  0.46711964  0.72066600    -2.29640
O1576       O  0.53329256  0.03175545  0.78066010    -0.74240
H1577       H  0.95551618  0.04513740  0.79397318     0.77760
H1578       H  0.54599180  0.04439255  0.70759227     0.78850
H1579       H  0.54512452  0.45358330  0.79357856     0.81070
H1580       H  0.95457415  0.45472052  0.70740992     0.78680
H1581       H  0.55698469  0.09394713  0.73545727     0.41710
H1582       H  0.59687047  0.05346535  0.76633061     0.40690
H1583       H  0.59365212  0.44114227  0.74058339     0.40360
H1584       H  0.55226389  0.40078607  0.76899966     0.38300
H1585       H  0.94179792  0.40638167  0.76088248     0.41430
H1586       H  0.90165680  0.44776239  0.73149637     0.36210
H1587       H  0.90766072  0.05807829  0.74051141     0.42330
H1588       H  0.94884237  0.09823781  0.77081464     0.38740
H1589       H  0.52920188  0.37692430  0.75516065     0.43660
H1590       H  0.87783699  0.47113487  0.74490937     0.42390
H1591       H  0.97168644  0.12204941  0.75656324     0.42520
H1592       H  0.62188259  0.02958336  0.75641933     0.42880
O1593       O  0.99763783  0.19797538  0.58655572    -0.75990
O1594       O  0.49959948  0.16183519  0.54868973    -0.54900
C1595       C  0.99823380  0.16992951  0.57708877     0.77740
O1596       O  0.91527160  0.30180060  0.49939434    -0.60590
O1597       O  0.95316350  0.33783859  0.50033994    -0.53620
C1598       C  0.92474831  0.32981740  0.49971498     0.69750
O1599       O  0.91459056  0.19829048  0.50192060    -0.75150
O1600       O  0.95226687  0.16198964  0.50146401    -0.55710
C1601       C  0.92390582  0.17020937  0.50199020     0.75760
O1602       O  0.99930219  0.30155129  0.58654969    -0.60290
O1603       O  0.00171316  0.33750611  0.54850010    -0.53410
C1604       C  0.00043462  0.32950047  0.57691368     0.72350
Zr1605     Zr  0.99988896  0.24974391  0.56519778     2.54710
O1606       O  0.95990723  0.25046136  0.60419529    -0.80860
O1607       O  0.54067779  0.24966770  0.60341485    -0.94280
Zr1608     Zr  0.93616644  0.24989323  0.50046055     2.64680
O1609       O  0.89726163  0.25045779  0.54058896    -0.99230
O1610       O  0.89771522  0.24975386  0.95991362    -0.81290
O1611       O  0.96741942  0.21989566  0.53333768    -0.84650
O1612       O  0.96764583  0.27973266  0.53327990    -2.19360
O1613       O  0.58619204  0.30093777  0.50219577    -0.68040
O1614       O  0.54855282  0.33724522  0.50099244    -0.52600
C1615       C  0.57698837  0.32901317  0.00172626     0.70730
O1616       O  0.50319830  0.19767311  0.91527315    -0.60950
O1617       O  0.50056692  0.16166778  0.95317709    -0.52920
C1618       C  0.50232782  0.16966411  0.92477900     0.72530
O1619       O  0.49867780  0.30115670  0.91508650    -0.72340
O1620       O  0.00052316  0.33735433  0.95290651    -0.51020
C1621       C  0.49920602  0.32920805  0.92451578     0.73920
O1622       O  0.58562806  0.19749239  0.50100191    -0.67670
O1623       O  0.54771019  0.16145494  0.50058428    -0.54870
C1624       C  0.57610226  0.16947448  0.00077357     0.72300
Zr1625     Zr  0.56452829  0.24931700  0.50129165     2.77540
O1626       O  0.60346476  0.24884730  0.96117425    -0.98420
O1627       O  0.60278600  0.24864994  0.54200277    -0.79240
Zr1628     Zr  0.50066636  0.24945389  0.93654258     2.70070
O1629       O  0.54061731  0.25142437  0.89756376    -0.80490
O1630       O  0.95979230  0.24697533  0.89852107    -0.99570
Zr1631     Zr  0.50012492  0.19039031  0.50091215     2.21500
Zr1632     Zr  0.00071781  0.30881498  0.50074553     2.11130
O1633       O  0.53339461  0.27923595  0.96821832    -2.48260
O1634       O  0.53304236  0.21951571  0.96843030    -0.80280
O1635       O  0.53291738  0.27946042  0.53376887    -0.72480
O1636       O  0.96771762  0.21976412  0.96795620    -2.33430
O1637       O  0.53265732  0.21963953  0.53385618    -2.29640
O1638       O  0.96812244  0.27968321  0.96796648    -0.74240
H1639       H  0.95502395  0.29303610  0.54576347     0.77760
H1640       H  0.95520386  0.20652889  0.95528985     0.78850
H1641       H  0.54605934  0.29234377  0.95559340     0.81070
H1642       H  0.54510368  0.20638355  0.54655156     0.78680
H1643       H  0.90498240  0.23416923  0.94503412     0.41710
H1644       H  0.94548463  0.26363295  0.90441470     0.40690
H1645       H  0.55801704  0.24002236  0.90670897     0.40360
H1646       H  0.59881331  0.26698584  0.94828918     0.38300
H1647       H  0.59356954  0.26101538  0.55871479     0.41430
H1648       H  0.55267490  0.23083991  0.59912132     0.36210
H1649       H  0.94225620  0.24004044  0.59438536     0.42330
H1650       H  0.90216453  0.26866235  0.55330715     0.38740
H1651       H  0.62275526  0.25424845  0.97189943     0.43660
H1652       H  0.53009575  0.24533508  0.62305758     0.42390
H1653       H  0.87804565  0.25602517  0.52981534     0.42520
H1654       H  0.96940805  0.25424237  0.87925243     0.42880
O1655       O  0.80168767  0.08553028  0.50246135    -0.75990
O1656       O  0.83790771  0.04778619  0.50134854    -0.54900
C1657       C  0.82973063  0.07617695  0.50220449     0.77740
O1658       O  0.69862656  0.49827251  0.58621216    -0.60590
O1659       O  0.66253266  0.99884282  0.54835020    -0.53620
C1660       C  0.67061539  0.99831912  0.57677502     0.69750
O1661       O  0.80207930  0.50145413  0.58634888    -0.75150
O1662       O  0.83815838  0.50054757  0.54847880    -0.55710
C1663       C  0.83008745  0.00135774  0.57689300     0.75760
O1664       O  0.69827764  0.08506414  0.50053362    -0.60290
O1665       O  0.66233833  0.04704106  0.50026061    -0.53410
C1666       C  0.67031036  0.07549989  0.50040066     0.72350
Zr1667     Zr  0.75008378  0.06397588  0.50077905     2.54710
O1668       O  0.74912499  0.10282018  0.54098698    -0.80860
O1669       O  0.75004446  0.10247074  0.96019634    -0.94280
Zr1670     Zr  0.75037827  0.49971058  0.56503458     2.64680
O1671       O  0.74977434  0.04006527  0.60378510    -0.99230
O1672       O  0.75116096  0.45944462  0.60380472    -0.81290
O1673       O  0.78010582  0.03245427  0.53339716    -0.84650
O1674       O  0.72036705  0.03226664  0.53344808    -2.19360
O1675       O  0.69874142  0.00032345  0.91505957    -0.68040
O1676       O  0.66263375  0.99961591  0.95289393    -0.52600
C1677       C  0.67073683  0.50002255  0.92446741     0.70730
O1678       O  0.80248679  0.41432574  0.49949909    -0.60950
O1679       O  0.83845133  0.45229898  0.50029945    -0.52920
C1680       C  0.83055678  0.42395574  0.99972595     0.72530
O1681       O  0.69911012  0.41378354  0.50158168    -0.72340
O1682       O  0.66288104  0.45152770  0.50098627    -0.51020
C1683       C  0.67113694  0.42311898  0.00144176     0.73920
O1684       O  0.80213814  0.99865617  0.91514813    -0.67670
O1685       O  0.83824303  0.49961600  0.95300983    -0.54870
C1686       C  0.83016251  0.49892691  0.92458641     0.72300
Zr1687     Zr  0.75044876  0.99975670  0.93644664     2.77540
O1688       O  0.75047221  0.45984488  0.89723633    -0.98420
O1689       O  0.75116184  0.04066567  0.89838991    -0.79240
Zr1690     Zr  0.75069953  0.43541597  0.50078746     2.70070
O1691       O  0.74999596  0.39625307  0.96092631    -0.80490
O1692       O  0.75224359  0.39755583  0.54187037    -0.99570
Zr1693     Zr  0.80953286  0.49991209  0.50073111     2.21500
Zr1694     Zr  0.69125663  0.99942942  0.50065687     2.11130
O1695       O  0.72080689  0.46685783  0.96799366    -2.48260
O1696       O  0.78045455  0.46718069  0.96806550    -0.80280
O1697       O  0.72033685  0.03228716  0.96803892    -0.72480
O1698       O  0.78043194  0.46712057  0.53347533    -2.33430
O1699       O  0.78014583  0.03261803  0.96803284    -2.29640
O1700       O  0.72060664  0.46690796  0.53339914    -0.74240
H1701       H  0.70710820  0.04480542  0.54604773     0.77760
H1702       H  0.79371904  0.45458487  0.54603564     0.78850
H1703       H  0.70771142  0.45415058  0.95539484     0.81070
H1704       H  0.79330064  0.04525427  0.95544778     0.78680
H1705       H  0.76556759  0.44383413  0.59571752     0.41710
H1706       H  0.73512727  0.40334085  0.55565738     0.40690
H1707       H  0.76005737  0.40609320  0.94308393     0.40360
H1708       H  0.73246062  0.44687422  0.90206011     0.38300
H1709       H  0.73830232  0.05709296  0.90743142     0.41430
H1710       H  0.76857738  0.09796810  0.94785018     0.36210
H1711       H  0.75999493  0.09318172  0.55846854     0.42330
H1712       H  0.73134992  0.05249036  0.59905099     0.38740
H1713       H  0.74478080  0.47065044  0.87806087     0.43660
H1714       H  0.75483856  0.12199242  0.97083789     0.42390
H1715       H  0.74462286  0.02932546  0.62314532     0.42520
H1716       H  0.74545403  0.37818874  0.53207093     0.42880
C1717       C  0.88625730  0.40835340  0.99795925    -0.14050
C1718       C  0.85504251  0.40025281  0.99953616     0.08100
C1719       C  0.84711547  0.36886302  0.50113547    -0.14050
C1720       C  0.86977331  0.34627889  0.50115375    -0.14050
C1721       C  0.90098364  0.35424205  0.49955743     0.08100
C1722       C  0.90904777  0.38564393  0.99797238    -0.14050
H1723       H  0.89310847  0.43222055  0.99668123     0.12090
H1724       H  0.82337361  0.36168622  0.50250093     0.12090
H1725       H  0.86269745  0.32248164  0.50253505     0.12090
H1726       H  0.93285746  0.39260354  0.99669623     0.12090
C1727       C  0.86884504  0.15387189  0.50346704    -0.14050
C1728       C  0.90008313  0.14587127  0.50255527     0.08100
C1729       C  0.90808331  0.11456995  0.50195502    -0.14050
C1730       C  0.88534199  0.09187017  0.50202710    -0.14050
C1731       C  0.85409765  0.09996969  0.50270488     0.08100
C1732       C  0.84619632  0.13126457  0.50353980    -0.14050
H1733       H  0.86174956  0.17770266  0.50400873     0.12090
H1734       H  0.93190979  0.10756549  0.50127547     0.12090
H1735       H  0.89227126  0.06799397  0.50139899     0.12090
H1736       H  0.82241416  0.13843377  0.50411278     0.12090
C1737       C  0.59280536  0.38465792  0.00183282    -0.14050
C1738       C  0.60082448  0.35335317  0.00186151     0.08100
C1739       C  0.63207779  0.34536390  0.00183914    -0.14050
C1740       C  0.65471586  0.36798964  0.00176046    -0.14050
C1741       C  0.64678901  0.39929263  0.00169204     0.08100
C1742       C  0.61553350  0.40737363  0.00174987    -0.14050
H1743       H  0.56896729  0.39165634  0.00184770     0.12090
H1744       H  0.63918744  0.32153111  0.00181226     0.12090
H1745       H  0.67850783  0.36083094  0.00169928     0.12090
H1746       H  0.60858207  0.43125124  0.00170302     0.12090
C1747       C  0.59216753  0.11412996  0.99532821    -0.14050
C1748       C  0.59980465  0.14502849  0.00090272     0.08100
C1749       C  0.63066084  0.15262134  0.50654634    -0.14050
C1750       C  0.65331580  0.13002948  0.50642820    -0.14050
C1751       C  0.64583369  0.09916710  0.50065962     0.08100
C1752       C  0.61494483  0.09141695  0.99521115    -0.14050
H1753       H  0.56865157  0.10752043  0.99080047     0.12090
H1754       H  0.63739848  0.17610772  0.51118883     0.12090
H1755       H  0.67676899  0.13683850  0.51099539     0.12090
H1756       H  0.60841121  0.06786712  0.99060421     0.12090
C1757       C  0.90854707  0.99867705  0.88616945    -0.14050
C1758       C  0.90051440  0.99848631  0.85486822     0.08100
C1759       C  0.86926187  0.99822202  0.84689823    -0.14050
C1760       C  0.84664980  0.49826588  0.86952128    -0.14050
C1761       C  0.85456664  0.49857581  0.90081828     0.08100
C1762       C  0.88582298  0.49872196  0.90890432    -0.14050
H1763       H  0.93238922  0.99887923  0.89314638     0.12090
H1764       H  0.86212776  0.99806028  0.82307563     0.12090
H1765       H  0.82286430  0.49814104  0.86234701     0.12090
H1766       H  0.89275920  0.49894285  0.93278373     0.12090
C1767       C  0.65419456  0.49804446  0.86943617    -0.14050
C1768       C  0.64633375  0.49995792  0.90068850     0.08100
C1769       C  0.61510666  0.00167164  0.90874678    -0.14050
C1770       C  0.59235170  0.00152970  0.88602993    -0.14050
C1771       C  0.60033360  0.49967042  0.85476474     0.08100
C1772       C  0.63154600  0.49790703  0.84682463    -0.14050
H1773       H  0.67794698  0.49656193  0.86230706     0.12090
H1774       H  0.60822060  0.00319414  0.93259182     0.12090
H1775       H  0.56854454  0.00294672  0.89297903     0.12090
H1776       H  0.63862037  0.49635433  0.82303538     0.12090
C1777       C  0.59224211  0.49677794  0.61519017    -0.14050
C1778       C  0.60026253  0.49771335  0.64648188     0.08100
C1779       C  0.63150013  0.99868161  0.65445140    -0.14050
C1780       C  0.65412445  0.99879703  0.63183452    -0.14050
C1781       C  0.64621833  0.99792829  0.60054467     0.08100
C1782       C  0.61497832  0.49687858  0.59246174    -0.14050
H1783       H  0.56840893  0.49598573  0.60822299     0.12090
H1784       H  0.63861538  0.99950370  0.67826651     0.12090
H1785       H  0.67789737  0.99969120  0.63899798     0.12090
H1786       H  0.60805551  0.49616074  0.56858786     0.12090
C1787       C  0.88568638  0.49938881  0.59259134    -0.14050
C1788       C  0.85453064  0.00205185  0.60061255     0.08100
C1789       C  0.84675891  0.00507905  0.63179744    -0.14050
C1790       C  0.86942374  0.00513119  0.65439325    -0.14050
C1791       C  0.90055593  0.00215417  0.64649686     0.08100
C1792       C  0.90845277  0.49943295  0.61528905    -0.14050
H1793       H  0.89250492  0.49701085  0.56879620     0.12090
H1794       H  0.82305657  0.00732540  0.63889325     0.12090
H1795       H  0.86241622  0.00739338  0.67814598     0.12090
H1796       H  0.93219680  0.49708809  0.60837382     0.12090
C1797       C  0.51091473  0.12963987  0.84797517    -0.14050
C1798       C  0.00336032  0.09910606  0.85519863     0.08100
C1799       C  0.99613154  0.09173428  0.88580484    -0.14050
C1800       C  0.99607072  0.11450509  0.90854005    -0.14050
C1801       C  0.50324105  0.14512234  0.90114388     0.08100
C1802       C  0.51086082  0.15231865  0.87062065    -0.14050
H1803       H  0.51685241  0.13612557  0.82471806     0.12090
H1804       H  0.99007764  0.06846374  0.89212980     0.12090
H1805       H  0.98997732  0.10819456  0.93180381     0.12090
H1806       H  0.51676517  0.17557902  0.86411642     0.12090
C1807       C  0.50540978  0.40693939  0.88534154    -0.14050
C1808       C  0.49792271  0.39949936  0.85479945     0.08100
C1809       C  0.99030198  0.36895460  0.84765571    -0.14050
C1810       C  0.99049763  0.34633693  0.87033904    -0.14050
C1811       C  0.49832609  0.35362585  0.90080324     0.08100
C1812       C  0.50560471  0.38424219  0.90810487    -0.14050
H1813       H  0.51153566  0.43021837  0.89160045     0.12090
H1814       H  0.98416801  0.36243005  0.82444891     0.12090
H1815       H  0.98448425  0.32306639  0.86393243     0.12090
H1816       H  0.51186304  0.39060997  0.93132096     0.12090
C1817       C  0.51391706  0.40528611  0.61777039    -0.14050
C1818       C  0.49973903  0.39985157  0.64624619     0.08100
C1819       C  0.98539410  0.37145153  0.65141037    -0.14050
C1820       C  0.98549174  0.34878644  0.62875134    -0.14050
C1821       C  0.99994055  0.35399885  0.60040884     0.08100
C1822       C  0.51401650  0.38253182  0.59502313    -0.14050
H1823       H  0.52536612  0.42690275  0.61330943     0.12090
H1824       H  0.97393858  0.36679595  0.67298324     0.12090
H1825       H  0.97410017  0.32717123  0.63336567     0.12090
H1826       H  0.52553169  0.38703684  0.57345075     0.12090
C1827       C  0.50403570  0.09190806  0.61581012    -0.14050
C1828       C  0.99798354  0.09943257  0.64664225     0.08100
C1829       C  0.99129464  0.13012447  0.65413068    -0.14050
C1830       C  0.99107634  0.15280027  0.63150997    -0.14050
C1831       C  0.99754172  0.14543673  0.60074927     0.08100
C1832       C  0.50382313  0.11466742  0.59310746    -0.14050
H1833       H  0.50934983  0.06850746  0.60925665     0.12090
H1834       H  0.98624105  0.13673688  0.67757102     0.12090
H1835       H  0.98588913  0.17618535  0.63822266     0.12090
H1836       H  0.50899485  0.10820649  0.56965254     0.12090
O1837       O  0.91493744  0.50207913  0.19894833    -0.75990
O1838       O  0.95269444  0.50016669  0.16279373    -0.54900
C1839       C  0.92432887  0.50149025  0.17090452     0.77740
O1840       O  0.00330110  0.58493922  0.30267180    -0.60590
O1841       O  0.00096404  0.54703255  0.33868683    -0.53620
C1842       C  0.00255309  0.57543605  0.33067971     0.69750
O1843       O  0.99876610  0.58516498  0.19911732    -0.75150
O1844       O  0.50005086  0.54732094  0.16292247    -0.55710
C1845       C  0.99896619  0.57572589  0.17106325     0.75760
O1846       O  0.91488106  0.49888345  0.30242482    -0.60290
O1847       O  0.95268380  0.99906177  0.33857871    -0.53410
C1848       C  0.92429332  0.49878126  0.33047281     0.72350
Zr1849     Zr  0.93616935  0.50011672  0.25070187     2.54710
O1850       O  0.89807449  0.54096949  0.25199321    -0.80860
O1851       O  0.89707802  0.96017418  0.24999185    -0.94100
Zr1852     Zr  0.00094421  0.56377634  0.25083065     2.64680
O1853       O  0.96077209  0.60264555  0.25198366    -0.99230
O1854       O  0.54129496  0.60241048  0.24954162    -0.81290
O1855       O  0.96812357  0.53241727  0.22085042    -0.84650
O1856       O  0.96799009  0.53247886  0.28069889    -2.19360
O1857       O  0.49765289  0.91366933  0.30227170    -0.68040
O1858       O  0.99999978  0.95153390  0.33839659    -0.52600
C1859       C  0.49850129  0.92313788  0.33030825     0.70730
O1860       O  0.58586622  0.99743382  0.19892661    -0.60950
O1861       O  0.54811313  0.49894078  0.16274860    -0.52920
C1862       C  0.57648667  0.99797180  0.17087243     0.72530
O1863       O  0.58589404  0.99939219  0.30232680    -0.72340
O1864       O  0.54813375  0.99950780  0.33851341    -0.51020
C1865       C  0.57652088  0.99954672  0.33038040     0.73920
O1866       O  0.49900600  0.91370926  0.19870253    -0.67670
O1867       O  0.50127853  0.95176617  0.16274942    -0.54870
C1868       C  0.50009871  0.92335102  0.17075393     0.72300
Zr1869     Zr  0.49956320  0.93507376  0.25051019     2.77540
O1870       O  0.53992142  0.89639368  0.25041798    -0.98420
O1871       O  0.95910819  0.89656806  0.24990748    -0.79240
Zr1872     Zr  0.56448407  0.99880631  0.25061856     2.70070
O1873       O  0.60324735  0.95858119  0.25157220    -0.80490
O1874       O  0.60272039  0.53952148  0.24932925    -0.99570
Zr1875     Zr  0.50042859  0.49949445  0.19145725     2.21500
Zr1876     Zr  0.00038022  0.99934366  0.30987103     2.11130
O1877       O  0.53263394  0.96630815  0.28040366    -2.48260
O1878       O  0.53261965  0.96637929  0.22069457    -0.80280
O1879       O  0.96737822  0.96706263  0.28055069    -0.72480
O1880       O  0.53332186  0.53193078  0.22081242    -2.33430
O1881       O  0.96731267  0.96712463  0.22066490    -2.29640
O1882       O  0.53329652  0.53175094  0.28065610    -0.74240
H1883       H  0.95552770  0.54513520  0.29397619     0.77760
H1884       H  0.54599947  0.54439838  0.20758798     0.78850
H1885       H  0.54512245  0.95358113  0.29357786     0.81070
H1886       H  0.95457619  0.95472579  0.20740787     0.78680
H1887       H  0.55699112  0.59394874  0.23545508     0.41710
H1888       H  0.59687850  0.55346534  0.26632444     0.40690
H1889       H  0.59364781  0.94114233  0.24058334     0.40360
H1890       H  0.55226062  0.90078488  0.26899740     0.38300
H1891       H  0.94179527  0.90638166  0.26088406     0.41430
H1892       H  0.90165693  0.94776171  0.23149362     0.36210
H1893       H  0.90766636  0.55807824  0.24051781     0.42330
H1894       H  0.94885034  0.59823668  0.27081882     0.38740
H1895       H  0.52919718  0.87692402  0.25515915     0.43660
H1896       H  0.87783495  0.97113500  0.24490140     0.42390
H1897       H  0.97169398  0.62204983  0.25656929     0.42520
H1898       H  0.62188966  0.52958426  0.25640840     0.42880
O1899       O  0.99764821  0.69800127  0.08655620    -0.75990
O1900       O  0.49958157  0.66186381  0.04868649    -0.54900
C1901       C  0.99822856  0.66995523  0.07708733     0.77740
O1902       O  0.91536231  0.80191912  0.99938998    -0.60590
O1903       O  0.95326976  0.83793868  0.00034514    -0.53620
C1904       C  0.92485080  0.82993274  0.99971618     0.69750
O1905       O  0.91457163  0.69839606  0.00192240    -0.75150
O1906       O  0.95223129  0.66207625  0.00146396    -0.55710
C1907       C  0.92387438  0.67031041  0.00199136     0.75760
O1908       O  0.99933738  0.80157445  0.08655110    -0.60290
O1909       O  0.00178556  0.83753129  0.04850554    -0.53410
C1910       C  0.00048698  0.82952304  0.07691723     0.72350
Zr1911     Zr  0.99991320  0.74977175  0.06519663     2.54710
O1912       O  0.95992335  0.75049195  0.10418557    -0.80860
O1913       O  0.54069553  0.74968717  0.10342065    -0.94280
Zr1914     Zr  0.93619371  0.74998083  0.00045429     2.64680
O1915       O  0.89726471  0.75060747  0.04055845    -0.99230
O1916       O  0.89767467  0.74961651  0.45993246    -0.81290
O1917       O  0.96742388  0.71995350  0.03333097    -0.84650
O1918       O  0.96769345  0.77978842  0.03327919    -2.19360
O1919       O  0.58626205  0.80092271  0.00219828    -0.68040
O1920       O  0.54863729  0.83724478  0.00099344    -0.52600
C1921       C  0.57690449  0.82902539  0.50172614     0.70730
O1922       O  0.50319041  0.69764705  0.41527384    -0.60950
O1923       O  0.50059215  0.66163792  0.45317699    -0.52920
C1924       C  0.50234048  0.66963779  0.42477946     0.72530
O1925       O  0.49864551  0.80113066  0.41508490    -0.72340
O1926       O  0.00045463  0.83732676  0.45290802    -0.51020
C1927       C  0.49915902  0.82918261  0.42451543     0.73920
O1928       O  0.58561921  0.69748175  0.00100325    -0.67670
O1929       O  0.54768615  0.66146033  0.00058365    -0.54870
C1930       C  0.57612584  0.66948137  0.50077076     0.72300
Zr1931     Zr  0.56455697  0.74931818  0.00129324     2.77540
O1932       O  0.60343530  0.74887644  0.46117171    -0.98420
O1933       O  0.60281441  0.74862405  0.04200430    -0.79240
Zr1934     Zr  0.50063540  0.74942430  0.43654271     2.70070
O1935       O  0.54058845  0.75140056  0.39756640    -0.80490
O1936       O  0.95976425  0.74694248  0.39851824    -0.99570
Zr1937     Zr  0.50011699  0.69042650  0.00091089     2.21500
Zr1938     Zr  0.00078465  0.80885016  0.00074668     2.11130
O1939       O  0.53334576  0.77922006  0.46822035    -2.48260
O1940       O  0.53303016  0.71950043  0.46842763    -0.80280
O1941       O  0.53296239  0.77947496  0.03377331    -0.72480
O1942       O  0.96770980  0.71970596  0.46795662    -2.33430
O1943       O  0.53266742  0.71965531  0.03385461    -2.29640
O1944       O  0.96806907  0.77962461  0.46796982    -0.74240
H1945       H  0.95507873  0.79310079  0.04576336     0.77760
H1946       H  0.95520509  0.70646262  0.45529069     0.78850
H1947       H  0.54600284  0.79233505  0.45559663     0.81070
H1948       H  0.54510638  0.70639157  0.04655025     0.78680
H1949       H  0.90499100  0.73408875  0.44501765     0.41710
H1950       H  0.94545815  0.76360321  0.40440689     0.40690
H1951       H  0.55799498  0.74001510  0.40671929     0.40360
H1952       H  0.59877382  0.76701532  0.44829075     0.38300
H1953       H  0.59360431  0.76099108  0.05871865     0.41430
H1954       H  0.55269394  0.73086096  0.09912380     0.36210
H1955       H  0.94225669  0.74011869  0.09435333     0.42330
H1956       H  0.90220219  0.76879131  0.05329303     0.38740
H1957       H  0.62272297  0.75428579  0.47189785     0.43660
H1958       H  0.53011041  0.74534881  0.12306043     0.42390
H1959       H  0.87806875  0.75622847  0.02977682     0.42520
H1960       H  0.96938278  0.75420423  0.37924897     0.42880
O1961       O  0.80165790  0.58561407  0.00245917    -0.75990
O1962       O  0.83789370  0.54788542  0.00134966    -0.54900
C1963       C  0.82970460  0.57627292  0.00220354     0.77740
O1964       O  0.69863795  0.99829124  0.08621351    -0.60590
O1965       O  0.66254692  0.49884098  0.04834342    -0.53620
C1966       C  0.67062718  0.49832448  0.07676906     0.69750
O1967       O  0.80208914  0.00148645  0.08634786    -0.75150
O1968       O  0.83816853  0.00061914  0.04847686    -0.55710
C1969       C  0.83009743  0.50140303  0.07689913     0.75760
O1970       O  0.69825456  0.58507250  0.00053262    -0.60290
O1971       O  0.66233086  0.54703488  0.00025872    -0.53410
C1972       C  0.67029140  0.57549705  0.00040023     0.72350
Zr1973     Zr  0.75007167  0.56401733  0.00077849     2.54710
O1974       O  0.74908914  0.60285941  0.04098807    -0.80860
O1975       O  0.75008905  0.60242674  0.46019423    -0.94280
Zr1976     Zr  0.75039048  0.99974751  0.06503326     2.64680
O1977       O  0.74977923  0.54009303  0.10379345    -0.99230
O1978       O  0.75117449  0.95947123  0.10379256    -0.81290
O1979       O  0.78010677  0.53251267  0.03340145    -0.84650
O1980       O  0.72036991  0.53229172  0.03344636    -2.19360
O1981       O  0.69874222  0.50030370  0.41505483    -0.68040
O1982       O  0.66262993  0.49961942  0.45288576    -0.52600
C1983       C  0.67072114  0.00001772  0.42446817     0.70730
O1984       O  0.80257451  0.91441912  0.99949540    -0.60950
O1985       O  0.83851843  0.95241134  0.00029642    -0.52920
C1986       C  0.83046717  0.92384713  0.49972419     0.72530
O1987       O  0.69918443  0.91378905  0.00158194    -0.72340
O1988       O  0.66293700  0.95151662  0.00099203    -0.51020
C1989       C  0.67106132  0.92312625  0.50144296     0.73920
O1990       O  0.80213843  0.49862333  0.41515299    -0.67670
O1991       O  0.83822645  0.99954650  0.45300934    -0.54870
C1992       C  0.83014678  0.99888165  0.42458499     0.72300
Zr1993     Zr  0.75044450  0.49971592  0.43644790     2.77540
O1994       O  0.75045247  0.95981079  0.39723174    -0.98420
O1995       O  0.75116645  0.54063106  0.39839786    -0.79240
Zr1996     Zr  0.75075915  0.93545625  0.00078354     2.70070
O1997       O  0.74989844  0.89621610  0.46092697    -0.80490
O1998       O  0.75233312  0.89759061  0.04186024    -0.99570
Zr1999     Zr  0.80954650  0.99999078  0.00072750     2.21500
Zr2000     Zr  0.69127847  0.49943929  0.00065426     2.11130
O2001       O  0.72076648  0.96683474  0.46799364    -2.48260
O2002       O  0.78041339  0.96711882  0.46806613    -0.80280
O2003       O  0.72034260  0.53226000  0.46803735    -0.72480
O2004       O  0.78046673  0.96718003  0.03347162    -2.33430
O2005       O  0.78015227  0.53255945  0.46803854    -2.29640
O2006       O  0.72064220  0.96692889  0.03339508    -0.74240
H2007       H  0.70710427  0.54482340  0.04604587     0.77760
H2008       H  0.79376128  0.95465119  0.04603068     0.78850
H2009       H  0.70766438  0.95413481  0.45539452     0.81070
H2010       H  0.79331476  0.54519030  0.45545552     0.78680
H2011       H  0.76558030  0.94386275  0.09569998     0.41710
H2012       H  0.73521600  0.90336352  0.05565127     0.40690
H2013       H  0.75999749  0.90603782  0.44309571     0.40360
H2014       H  0.73243864  0.94684223  0.40205281     0.38300
H2015       H  0.73831603  0.55706244  0.40744494     0.41430
H2016       H  0.76862845  0.59792155  0.44785875     0.36210
H2017       H  0.75996016  0.59322484  0.05847110     0.42330
H2018       H  0.73135432  0.55251726  0.09905894     0.38740
H2019       H  0.74476363  0.97062006  0.37805759     0.43660
H2020       H  0.75487930  0.62194838  0.47083758     0.42390
H2021       H  0.74462529  0.52934797  0.12315012     0.42520
H2022       H  0.74555291  0.87822110  0.03205904     0.42880
C2023       C  0.88615498  0.90822890  0.49795633    -0.14050
C2024       C  0.85494028  0.90013365  0.49953166     0.08100
C2025       C  0.84722072  0.86898068  0.00114063    -0.14050
C2026       C  0.86988144  0.84640108  0.00116069    -0.14050
C2027       C  0.90109094  0.85436541  0.99956107     0.08100
C2028       C  0.90893988  0.88551801  0.49796890    -0.14050
H2029       H  0.89301155  0.93209454  0.49668090     0.12090
H2030       H  0.82348085  0.86179807  0.00250818     0.12090
H2031       H  0.86280655  0.82260387  0.00254531     0.12090
H2032       H  0.93274994  0.89247648  0.49669509     0.12090
C2033       C  0.86880764  0.65397843  0.00346267    -0.14050
C2034       C  0.90004615  0.64597827  0.00255601     0.08100
C2035       C  0.90804728  0.61467745  0.00195918    -0.14050
C2036       C  0.88530883  0.59197712  0.00203023    -0.14050
C2037       C  0.85406424  0.60007338  0.00270350     0.08100
C2038       C  0.84615947  0.63136822  0.00353437    -0.14050
H2039       H  0.86171281  0.67780950  0.00400096     0.12090
H2040       H  0.93187376  0.60767266  0.00128331     0.12090
H2041       H  0.89224147  0.56810185  0.00140522     0.12090
H2042       H  0.82237618  0.63853395  0.00410352     0.12090
C2043       C  0.59271877  0.88467568  0.50183188    -0.14050
C2044       C  0.60073637  0.85337022  0.50186134     0.08100
C2045       C  0.63198933  0.84538009  0.50183948    -0.14050
C2046       C  0.65462834  0.86800315  0.50176101    -0.14050
C2047       C  0.64670537  0.89930680  0.50169230     0.08100
C2048       C  0.61544999  0.90739079  0.50174913    -0.14050
H2049       H  0.56888071  0.89167415  0.50184607     0.12090
H2050       H  0.63909929  0.82154738  0.50181295     0.12090
H2051       H  0.67841918  0.86084074  0.50170039     0.12090
H2052       H  0.60850192  0.93126935  0.50170182     0.12090
C2053       C  0.59219771  0.61414121  0.49532353    -0.14050
C2054       C  0.59983457  0.64504039  0.50089475     0.08100
C2055       C  0.63063405  0.65260956  0.00655596    -0.14050
C2056       C  0.65328879  0.63001951  0.00643694    -0.14050
C2057       C  0.64580894  0.59915785  0.00066333     0.08100
C2058       C  0.61497395  0.59142831  0.49520621    -0.14050
H2059       H  0.56868141  0.60753003  0.49079992     0.12090
H2060       H  0.63737237  0.67609517  0.01120152     0.12090
H2061       H  0.67674100  0.63683034  0.01100663     0.12090
H2062       H  0.60843794  0.56787836  0.49060320     0.12090
C2063       C  0.90855239  0.49866638  0.38617873    -0.14050
C2064       C  0.90052181  0.49848530  0.35487664     0.08100
C2065       C  0.86926923  0.49822242  0.34690601    -0.14050
C2066       C  0.84663772  0.99825153  0.36951903    -0.14050
C2067       C  0.85455265  0.99854760  0.40081673     0.08100
C2068       C  0.88580908  0.99869883  0.40890346    -0.14050
H2069       H  0.93239425  0.49886863  0.39315666     0.12090
H2070       H  0.86213597  0.49806933  0.32308312     0.12090
H2071       H  0.82285252  0.99812529  0.36234385     0.12090
H2072       H  0.89274440  0.99891228  0.43278319     0.12090
C2073       C  0.65418311  0.99804697  0.36943669    -0.14050
C2074       C  0.64632016  0.99995950  0.40068850     0.08100
C2075       C  0.61511047  0.50167604  0.40873651    -0.14050
C2076       C  0.59235753  0.50153475  0.38601888    -0.14050
C2077       C  0.60032370  0.99967361  0.35476343     0.08100
C2078       C  0.63153613  0.99791045  0.34682428    -0.14050
H2079       H  0.67793580  0.99656358  0.36230864     0.12090
H2080       H  0.60822279  0.50319770  0.43258112     0.12090
H2081       H  0.56855005  0.50295195  0.39296683     0.12090
H2082       H  0.63861165  0.99635751  0.32303537     0.12090
C2083       C  0.59224916  0.99677573  0.11518840    -0.14050
C2084       C  0.60026693  0.99771153  0.14648090     0.08100
C2085       C  0.63150527  0.49867933  0.15444374    -0.14050
C2086       C  0.65413117  0.49879533  0.13182801    -0.14050
C2087       C  0.64622755  0.49792772  0.10053750     0.08100
C2088       C  0.61498734  0.99687671  0.09246112    -0.14050
H2089       H  0.56841642  0.99598382  0.10821966     0.12090
H2090       H  0.63861944  0.49950146  0.17825915     0.12090
H2091       H  0.67790359  0.49968992  0.13899302     0.12090
H2092       H  0.60806593  0.99615996  0.06858681     0.12090
C2093       C  0.88569305  0.99941304  0.09259020    -0.14050
C2094       C  0.85453819  0.50207990  0.10061997     0.08100
C2095       C  0.84676460  0.50509064  0.13180587    -0.14050
C2096       C  0.86942817  0.50512972  0.15440238    -0.14050
C2097       C  0.90056021  0.50215546  0.14650504     0.08100
C2098       C  0.90845793  0.99944394  0.11528871    -0.14050
H2099       H  0.89251195  0.99704150  0.06879451     0.12090
H2100       H  0.82306214  0.50733637  0.13890156     0.12090
H2101       H  0.86242009  0.50738229  0.17815587     0.12090
H2102       H  0.93220186  0.99709706  0.10837385     0.12090
C2103       C  0.51093658  0.62962513  0.34797540    -0.14050
C2104       C  0.00337988  0.59909169  0.35519630     0.08100
C2105       C  0.99615094  0.59171525  0.38580097    -0.14050
C2106       C  0.99609044  0.61448246  0.40853808    -0.14050
C2107       C  0.50326080  0.64509971  0.40114426     0.08100
C2108       C  0.51088266  0.65230055  0.37062294    -0.14050
H2109       H  0.51687483  0.63611311  0.32471905     0.12090
H2110       H  0.99009549  0.56844429  0.39212301     0.12090
H2111       H  0.98999519  0.60816975  0.43180079     0.12090
H2112       H  0.51678742  0.67556175  0.36412195     0.12090
C2113       C  0.50538428  0.90692065  0.38534739    -0.14050
C2114       C  0.49791297  0.89948453  0.35480011     0.08100
C2115       C  0.99029811  0.86893899  0.34765085    -0.14050
C2116       C  0.99048164  0.84631851  0.37033298    -0.14050
C2117       C  0.49829137  0.85360403  0.40080288     0.08100
C2118       C  0.50556672  0.88422054  0.40810968    -0.14050
H2119       H  0.51150572  0.93019931  0.39161179     0.12090
H2120       H  0.98417670  0.86241592  0.32444036     0.12090
H2121       H  0.98447269  0.82304827  0.36392113     0.12090
H2122       H  0.51181252  0.89058639  0.43132969     0.12090
C2123       C  0.51395166  0.90530186  0.11778293    -0.14050
C2124       C  0.49975538  0.89986572  0.14624878     0.08100
C2125       C  0.98540514  0.87146747  0.15140437    -0.14050
C2126       C  0.98551576  0.84880407  0.12874522    -0.14050
C2127       C  0.99998371  0.85401765  0.10041280     0.08100
C2128       C  0.51406451  0.88254923  0.09503574    -0.14050
H2129       H  0.52540500  0.92691802  0.11333046     0.12090
H2130       H  0.97393608  0.86681223  0.17297017     0.12090
H2131       H  0.97411920  0.82718970  0.13335126     0.12090
H2132       H  0.52559306  0.88705447  0.07347056     0.12090
C2133       C  0.50402416  0.59192589  0.11580384    -0.14050
C2134       C  0.99798123  0.59944751  0.14663892     0.08100
C2135       C  0.99129883  0.63014068  0.15413012    -0.14050
C2136       C  0.99107860  0.65281931  0.13151060    -0.14050
C2137       C  0.99753515  0.64545857  0.10074712     0.08100
C2138       C  0.50380935  0.61468806  0.09310235    -0.14050
H2139       H  0.50933294  0.56852506  0.10924693     0.12090
H2140       H  0.98625234  0.63675217  0.17757222     0.12090
H2141       H  0.98589724  0.67620477  0.13822647     0.12090
H2142       H  0.50897458  0.60822832  0.06964567     0.12090
O2143       O  0.91493477  0.50208042  0.69894644    -0.75990
O2144       O  0.95269175  0.50016265  0.66279231    -0.54900
C2145       C  0.92432583  0.50148921  0.67090229     0.77740
O2146       O  0.00329611  0.58494636  0.80267368    -0.60590
O2147       O  0.00096120  0.54704212  0.83869078    -0.53620
C2148       C  0.00254742  0.57544609  0.83068288     0.69750
O2149       O  0.99876786  0.58515637  0.69911941    -0.75150
O2150       O  0.50005130  0.54731001  0.66292640    -0.55710
C2151       C  0.99896805  0.57571459  0.67106667     0.75760
O2152       O  0.91488392  0.49887960  0.80242353    -0.60290
O2153       O  0.95267992  0.99906475  0.83857446    -0.53410
C2154       C  0.92429699  0.49878027  0.83047107     0.72350
Zr2155     Zr  0.93616904  0.50011624  0.75070055     2.54710
O2156       O  0.89807469  0.54096945  0.75199236    -0.80860
O2157       O  0.89707422  0.96017388  0.74998790    -0.94100
Zr2158     Zr  0.00094446  0.56377554  0.75083316     2.64680
O2159       O  0.96077320  0.60264580  0.75198157    -0.99230
O2160       O  0.54129599  0.60240872  0.74954065    -0.81290
O2161       O  0.96812552  0.53241433  0.72085093    -0.84650
O2162       O  0.96798826  0.53248053  0.78069899    -2.19360
O2163       O  0.49764598  0.91367615  0.80227152    -0.68040
O2164       O  0.99999446  0.95154382  0.83839373    -0.52600
C2165       C  0.49849568  0.92314808  0.83030657     0.70730
O2166       O  0.58586339  0.99743586  0.69893197    -0.60950
O2167       O  0.54811040  0.49893536  0.66275274    -0.52920
C2168       C  0.57648336  0.99797146  0.67087796     0.72530
O2169       O  0.58588997  0.99938828  0.80233337    -0.72340
O2170       O  0.54812933  0.99951139  0.83851935    -0.51020
C2171       C  0.57651699  0.99954526  0.83038726     0.73920
O2172       O  0.49899850  0.91370174  0.69870166    -0.67670
O2173       O  0.50127146  0.95175601  0.66274657    -0.54870
C2174       C  0.50008914  0.92334054  0.67075152     0.72300
Zr2175     Zr  0.49955923  0.93507302  0.75050932     2.77540
O2176       O  0.53991728  0.89639278  0.75042136    -0.98420
O2177       O  0.95910425  0.89656722  0.74990938    -0.79240
Zr2178     Zr  0.56448074  0.99880538  0.75062330     2.70070
O2179       O  0.60324382  0.95858016  0.75157997    -0.80490
O2180       O  0.60272048  0.53952045  0.74932971    -0.99570
Zr2181     Zr  0.50042620  0.49948590  0.69145841     2.21500
Zr2182     Zr  0.00037711  0.99935122  0.80987155     2.11130
O2183       O  0.53262732  0.96630996  0.78040563    -2.48260
O2184       O  0.53261936  0.96637557  0.72069658    -0.80280
O2185       O  0.96737754  0.96706703  0.78054926    -0.72480
O2186       O  0.53331827  0.53192530  0.72081456    -2.33430
O2187       O  0.96730643  0.96711985  0.72066382    -2.29640
O2188       O  0.53330100  0.53175557  0.78065856    -0.74240
H2189       H  0.95552555  0.54513720  0.79397565     0.77760
H2190       H  0.54599582  0.54439245  0.70758962     0.78850
H2191       H  0.54511520  0.95358321  0.79358086     0.81070
H2192       H  0.95456984  0.95472071  0.70740678     0.78680
H2193       H  0.55699144  0.59394576  0.73545405     0.41710
H2194       H  0.59687961  0.55346454  0.76632506     0.40690
H2195       H  0.59364610  0.94114223  0.74058806     0.40360
H2196       H  0.55225634  0.90078599  0.76900039     0.38300
H2197       H  0.94178974  0.90638336  0.76088118     0.41430
H2198       H  0.90165195  0.94776276  0.73148847     0.36210
H2199       H  0.90766754  0.55807883  0.74051873     0.42330
H2200       H  0.94885023  0.59823838  0.77081632     0.38740
H2201       H  0.52919291  0.87692371  0.75516464     0.43660
H2202       H  0.87783090  0.97113516  0.74489936     0.42390
H2203       H  0.97169525  0.62205012  0.75656665     0.42520
H2204       H  0.62189005  0.52958317  0.75640798     0.42880
O2205       O  0.99763803  0.69797522  0.58655570    -0.75990
O2206       O  0.49960014  0.66183506  0.54868972    -0.54900
C2207       C  0.99823427  0.66992936  0.57708876     0.77740
O2208       O  0.91527084  0.80180038  0.49939435    -0.60590
O2209       O  0.95316254  0.83783855  0.50033989    -0.53620
C2210       C  0.92474734  0.82981728  0.49971492     0.69750
O2211       O  0.91459130  0.69829027  0.50192095    -0.75150
O2212       O  0.95226779  0.66198959  0.50146421    -0.55710
C2213       C  0.92390677  0.67020926  0.50199061     0.75760
O2214       O  0.99930178  0.80155112  0.58654968    -0.60290
O2215       O  0.00171228  0.83750602  0.54850013    -0.53410
C2216       C  0.00043388  0.82950032  0.57691369     0.72350
Zr2217     Zr  0.99988892  0.74974377  0.56519776     2.54710
O2218       O  0.95990718  0.75046072  0.60419526    -0.80860
O2219       O  0.54067777  0.74966793  0.60341482    -0.94280
Zr2220     Zr  0.93616643  0.74989310  0.50046049     2.64680
O2221       O  0.89726147  0.75045729  0.54058875    -0.99230
O2222       O  0.89771551  0.74975145  0.95991314    -0.81290
O2223       O  0.96741973  0.71989551  0.53333742    -0.84650
O2224       O  0.96764549  0.77973248  0.53328005    -2.19360
O2225       O  0.58619131  0.80093787  0.50219610    -0.68040
O2226       O  0.54855190  0.83724514  0.50099268    -0.52600
C2227       C  0.57698610  0.82901380  0.00172792     0.70730
O2228       O  0.50320132  0.69767332  0.91527305    -0.60950
O2229       O  0.50057009  0.66166791  0.95317691    -0.52920
C2230       C  0.50233174  0.66966429  0.92477888     0.72530
O2231       O  0.49867472  0.80115665  0.91508640    -0.72340
O2232       O  0.00051991  0.83735433  0.95290636    -0.51020
C2233       C  0.49920205  0.82920802  0.92451566     0.73920
O2234       O  0.58562878  0.69749251  0.50100187    -0.67670
O2235       O  0.54771113  0.66145486  0.50058417    -0.54870
C2236       C  0.57610445  0.66947511  0.00077230     0.72300
Zr2237     Zr  0.56452828  0.74931701  0.50129166     2.77540
O2238       O  0.60346453  0.74885008  0.96117392    -0.98420
O2239       O  0.60278605  0.74865026  0.54200273    -0.79240
Zr2240     Zr  0.50066630  0.74945395  0.93654248     2.70070
O2241       O  0.54061713  0.75142727  0.89756368    -0.80490
O2242       O  0.95979244  0.74697258  0.89852095    -0.99570
Zr2243     Zr  0.50012561  0.69039021  0.50091212     2.21500
Zr2244     Zr  0.00071710  0.80881493  0.50074554     2.11130
O2245       O  0.53339385  0.77923650  0.96821845    -2.48260
O2246       O  0.53304300  0.71951617  0.96842991    -0.80280
O2247       O  0.53291702  0.77946039  0.53376869    -0.72480
O2248       O  0.96771828  0.71976365  0.96795632    -2.33430
O2249       O  0.53265763  0.71963950  0.53385634    -2.29640
O2250       O  0.96812169  0.77968285  0.96796610    -0.74240
H2251       H  0.95502351  0.79303583  0.54576362     0.77760
H2252       H  0.95520484  0.70652810  0.95529001     0.78850
H2253       H  0.54605828  0.79234465  0.95559358     0.81070
H2254       H  0.54510407  0.70638360  0.54655171     0.78680
H2255       H  0.90498245  0.73416565  0.94503474     0.41710
H2256       H  0.94548380  0.76362944  0.90441440     0.40690
H2257       H  0.55801701  0.74002489  0.90670815     0.40360
H2258       H  0.59881266  0.76698898  0.94828949     0.38300
H2259       H  0.59356937  0.76101537  0.55871488     0.41430
H2260       H  0.55267489  0.73084012  0.59912143     0.36210
H2261       H  0.94225607  0.74004015  0.59438510     0.42330
H2262       H  0.90216418  0.76866186  0.55330701     0.38740
H2263       H  0.62275495  0.75425127  0.97189921     0.43660
H2264       H  0.53009574  0.74533546  0.62305758     0.42390
H2265       H  0.87804547  0.75602455  0.52981508     0.42520
H2266       H  0.96940779  0.75423998  0.87925226     0.42880
O2267       O  0.80168958  0.58553007  0.50246229    -0.75990
O2268       O  0.83790984  0.54778612  0.50135115    -0.54900
C2269       C  0.82973254  0.57617680  0.50220629     0.77740
O2270       O  0.69862645  0.99827284  0.58621482    -0.60590
O2271       O  0.66253350  0.49884268  0.54834683    -0.53620
C2272       C  0.67061575  0.49831882  0.57677169     0.69750
O2273       O  0.80207926  0.00145534  0.58634580    -0.75150
O2274       O  0.83815756  0.00054814  0.54847498    -0.55710
C2275       C  0.83008775  0.50135651  0.57689680     0.75760
O2276       O  0.69827962  0.58506437  0.50053334    -0.60290
O2277       O  0.66234050  0.54704114  0.50025869    -0.53410
C2278       C  0.67031234  0.57550006  0.50039958     0.72350
Zr2279     Zr  0.75008584  0.56397584  0.50077919     2.54710
O2280       O  0.74912651  0.60282043  0.54098685    -0.80860
O2281       O  0.75005012  0.60246910  0.96019425    -0.94280
Zr2282     Zr  0.75037731  0.99971058  0.56503441     2.64680
O2283       O  0.74977377  0.54006560  0.60378492    -0.99230
O2284       O  0.75116196  0.95944427  0.60380415    -0.81290
O2285       O  0.78010738  0.53245451  0.53339828    -0.84650
O2286       O  0.72036859  0.53226643  0.53344736    -2.19360
O2287       O  0.69875265  0.50032345  0.91505539    -0.68040
O2288       O  0.66264304  0.49961631  0.95288806    -0.52600
C2289       C  0.67072595  0.00002218  0.92447284     0.70730
O2290       O  0.80248486  0.91432548  0.49949851    -0.60950
O2291       O  0.83844919  0.95229893  0.50029725    -0.52920
C2292       C  0.83055320  0.92395539  0.99972278     0.72530
O2293       O  0.69910824  0.91378371  0.50158215    -0.72340
O2294       O  0.66287895  0.95152770  0.50098836    -0.51020
C2295       C  0.67113345  0.92311937  0.00144550     0.73920
O2296       O  0.80214939  0.49865605  0.91515241    -0.67670
O2297       O  0.83823374  0.99961589  0.95300383    -0.54870
C2298       C  0.83015162  0.99892682  0.92458085     0.72300
Zr2299     Zr  0.75045784  0.49975599  0.93644664     2.77540
O2300       O  0.75045942  0.95984698  0.89723491    -0.98420
O2301       O  0.75117459  0.54066360  0.89838853    -0.79240
Zr2302     Zr  0.75069753  0.93541599  0.50078720     2.70070
O2303       O  0.74999086  0.89625353  0.96092552    -0.80490
O2304       O  0.75224208  0.89755562  0.54186988    -0.99570
Zr2305     Zr  0.80953038  0.99991210  0.50072887     2.21500
Zr2306     Zr  0.69125910  0.49942943  0.50065504     2.11130
O2307       O  0.72080069  0.96685773  0.96799508    -2.48260
O2308       O  0.78044820  0.96718151  0.96806352    -0.80280
O2309       O  0.72034319  0.53228635  0.96803690    -0.72480
O2310       O  0.78043044  0.96712080  0.53347424    -2.33430
O2311       O  0.78015214  0.53261804  0.96803424    -2.29640
O2312       O  0.72060515  0.96690772  0.53339983    -0.74240
H2313       H  0.70710936  0.54480516  0.54604666     0.77760
H2314       H  0.79371795  0.95458520  0.54603420     0.78850
H2315       H  0.70770464  0.95415063  0.95539714     0.81070
H2316       H  0.79330791  0.54525439  0.95544977     0.78680
H2317       H  0.76556908  0.94383438  0.59571666     0.41710
H2318       H  0.73512612  0.90334073  0.55565728     0.40690
H2319       H  0.76004906  0.90609482  0.94308196     0.40360
H2320       H  0.73244940  0.94687502  0.90206108     0.38300
H2321       H  0.73831615  0.55709215  0.90742929     0.41430
H2322       H  0.76858444  0.59796695  0.94785002     0.36210
H2323       H  0.75999589  0.59318195  0.55846875     0.42330
H2324       H  0.73134945  0.55249056  0.59905006     0.38740
H2325       H  0.74476430  0.97065284  0.87806072     0.43660
H2326       H  0.75484225  0.62199141  0.97083552     0.42390
H2327       H  0.74462164  0.52932591  0.62314503     0.42520
H2328       H  0.74545213  0.87818864  0.53207047     0.42880
C2329       C  0.88625407  0.90835290  0.99795682    -0.14050
C2330       C  0.85503922  0.90025232  0.99953303     0.08100
C2331       C  0.84711405  0.86886278  0.50113468    -0.14050
C2332       C  0.86977207  0.84627871  0.50115335    -0.14050
C2333       C  0.90098241  0.85424193  0.49955715     0.08100
C2334       C  0.90904475  0.88564348  0.99797074    -0.14050
H2335       H  0.89310517  0.93222008  0.99667892     0.12090
H2336       H  0.82337221  0.86168586  0.50250004     0.12090
H2337       H  0.86269634  0.82248144  0.50253481     0.12090
H2338       H  0.93285442  0.89260325  0.99669520     0.12090
C2339       C  0.86884625  0.65387173  0.50346784    -0.14050
C2340       C  0.90008433  0.64587118  0.50255609     0.08100
C2341       C  0.90808477  0.61456994  0.50195633    -0.14050
C2342       C  0.88534363  0.59187010  0.50202884    -0.14050
C2343       C  0.85409931  0.59996955  0.50270657     0.08100
C2344       C  0.84619771  0.63126435  0.50354102    -0.14050
H2345       H  0.86175064  0.67770247  0.50400917     0.12090
H2346       H  0.93191129  0.60756560  0.50127682     0.12090
H2347       H  0.89227303  0.56799393  0.50140104     0.12090
H2348       H  0.82241552  0.63843343  0.50411393     0.12090
C2349       C  0.59280236  0.88465841  0.00183671    -0.14050
C2350       C  0.60082181  0.85335378  0.00186437     0.08100
C2351       C  0.63207508  0.84536455  0.00184207    -0.14050
C2352       C  0.65471294  0.86799028  0.00176406    -0.14050
C2353       C  0.64678580  0.89929313  0.00169628     0.08100
C2354       C  0.61553032  0.90737414  0.00175445    -0.14050
H2355       H  0.56896425  0.89165667  0.00185171     0.12090
H2356       H  0.63918489  0.82153179  0.00181452     0.12090
H2357       H  0.67850495  0.86083168  0.00170267     0.12090
H2358       H  0.60857878  0.93125172  0.00170813     0.12090
C2359       C  0.59217037  0.61413039  0.99532680    -0.14050
C2360       C  0.59980736  0.64502918  0.00090036     0.08100
C2361       C  0.63066212  0.65262150  0.50654560    -0.14050
C2362       C  0.65331730  0.63002974  0.50642717    -0.14050
C2363       C  0.64583542  0.59916726  0.50065867     0.08100
C2364       C  0.61494792  0.59141746  0.99520903    -0.14050
H2365       H  0.56865423  0.60752053  0.99080054     0.12090
H2366       H  0.63739967  0.67610793  0.51118800     0.12090
H2367       H  0.67677050  0.63683893  0.51099408     0.12090
H2368       H  0.60841417  0.56786746  0.99060312     0.12090
C2369       C  0.90855947  0.49867605  0.88617608    -0.14050
C2370       C  0.90052702  0.49848662  0.85487470     0.08100
C2371       C  0.86927450  0.49822372  0.84690470    -0.14050
C2372       C  0.84663731  0.99826419  0.86951507    -0.14050
C2373       C  0.85455469  0.99857552  0.90081196     0.08100
C2374       C  0.88581098  0.99872297  0.90889769    -0.14050
H2375       H  0.93240162  0.49887711  0.89315305     0.12090
H2376       H  0.86214036  0.49806309  0.82308210     0.12090
H2377       H  0.82285168  0.99813825  0.86234122     0.12090
H2378       H  0.89274757  0.99894499  0.93277698     0.12090
C2379       C  0.65418214  0.99804339  0.86944221    -0.14050
C2380       C  0.64632182  0.99995709  0.90069463     0.08100
C2381       C  0.61511865  0.50167257  0.90874043    -0.14050
C2382       C  0.59236404  0.50153065  0.88602363    -0.14050
C2383       C  0.60032108  0.99966952  0.85477089     0.08100
C2384       C  0.63153347  0.99790594  0.84683087    -0.14050
H2385       H  0.67793444  0.99656080  0.86231275     0.12090
H2386       H  0.60823227  0.50319500  0.93258538     0.12090
H2387       H  0.56855690  0.50294763  0.89297275     0.12090
H2388       H  0.63860790  0.99635315  0.82304165     0.12090
C2389       C  0.59224184  0.99677896  0.61519438    -0.14050
C2390       C  0.60026207  0.99771367  0.64648621     0.08100
C2391       C  0.63150052  0.49868202  0.65444713    -0.14050
C2392       C  0.65412470  0.49879743  0.63183047    -0.14050
C2393       C  0.64621854  0.49792795  0.60054075     0.08100
C2394       C  0.61497804  0.99687960  0.59246589    -0.14050
H2395       H  0.56840868  0.99598731  0.60822705     0.12090
H2396       H  0.63861591  0.49950473  0.67826218     0.12090
H2397       H  0.67789756  0.49969221  0.63899405     0.12090
H2398       H  0.60805508  0.99616234  0.56859204     0.12090
C2399       C  0.88568606  0.99938800  0.59258681    -0.14050
C2400       C  0.85453071  0.50204978  0.60061703     0.08100
C2401       C  0.84675878  0.50507349  0.63180231    -0.14050
C2402       C  0.86942372  0.50512551  0.65439834    -0.14050
C2403       C  0.90055621  0.50215188  0.64650177     0.08100
C2404       C  0.90845248  0.99943225  0.61528444    -0.14050
H2405       H  0.89250427  0.99700739  0.56879183     0.12090
H2406       H  0.82305623  0.50731731  0.63889821     0.12090
H2407       H  0.86241614  0.50738509  0.67815130     0.12090
H2408       H  0.93219635  0.99708480  0.60836954     0.12090
C2409       C  0.51092256  0.62964034  0.84797525    -0.14050
C2410       C  0.00337020  0.59910604  0.85519878     0.08100
C2411       C  0.99614202  0.59173382  0.88580502    -0.14050
C2412       C  0.99607935  0.61450470  0.90854012    -0.14050
C2413       C  0.50324720  0.64512250  0.90114385     0.08100
C2414       C  0.51086682  0.65231922  0.87062066    -0.14050
H2415       H  0.51685974  0.63612638  0.82471812     0.12090
H2416       H  0.99008970  0.56846288  0.89213004     0.12090
H2417       H  0.98998631  0.60819377  0.93180387     0.12090
H2418       H  0.51676942  0.67558002  0.86411637     0.12090
C2419       C  0.50539919  0.90694000  0.88534158    -0.14050
C2420       C  0.49791290  0.89949943  0.85479943     0.08100
C2421       C  0.99029441  0.86895413  0.84765564    -0.14050
C2422       C  0.99049188  0.84633640  0.87033894    -0.14050
C2423       C  0.49831996  0.85362583  0.90080315     0.08100
C2424       C  0.50559596  0.88424277  0.90810485    -0.14050
H2425       H  0.51152335  0.93021942  0.89160055     0.12090
H2426       H  0.98416109  0.86242914  0.82444879     0.12090
H2427       H  0.98448037  0.82306539  0.86393227     0.12090
H2428       H  0.51185377  0.89061103  0.93132095     0.12090
C2429       C  0.51391522  0.90528606  0.61777056    -0.14050
C2430       C  0.49973685  0.89985142  0.64624617     0.08100
C2431       C  0.98539212  0.87145122  0.65141017    -0.14050
C2432       C  0.98549032  0.84878611  0.62875118    -0.14050
C2433       C  0.99993944  0.85399866  0.60040886     0.08100
C2434       C  0.51401518  0.88253175  0.59502332    -0.14050
H2435       H  0.52536411  0.92690282  0.61330971     0.12090
H2436       H  0.97393631  0.86679553  0.67298286     0.12090
H2437       H  0.97409889  0.82717080  0.63336536     0.12090
H2438       H  0.52553058  0.88703688  0.57345107     0.12090
C2439       C  0.50403630  0.59190788  0.61581010    -0.14050
C2440       C  0.99798518  0.59943252  0.64664240     0.08100
C2441       C  0.99129674  0.63012447  0.65413096    -0.14050
C2442       C  0.99107794  0.65280022  0.63151019    -0.14050
C2443       C  0.99754240  0.64543658  0.60074931     0.08100
C2444       C  0.50382326  0.61466719  0.59310739    -0.14050
H2445       H  0.50935005  0.56850722  0.60925652     0.12090
H2446       H  0.98624395  0.63673697  0.67757146     0.12090
H2447       H  0.98589116  0.67618537  0.63822301     0.12090
H2448       H  0.50899423  0.60820615  0.56965233     0.12090
loop_ 
_geom_bond_atom_site_label_1 
_geom_bond_atom_site_label_2 
_geom_bond_distance 
_geom_bond_site_symmetry_2 
_ccdc_geom_bond_type 
O1          Zr13   2.438       .  S
O1            C3   1.288       .  A
O2        Zr1263   2.427   1_545  S
O2            C3   1.287       .  A
C3          C261   1.484       .  S
O4          Zr16   2.440       .  S
O4            C6   1.289       .  A
O5         Zr652   2.426   1_545  S
O5            C6   1.287       .  A
C6          C268   1.483       .  S
O7          Zr16   2.439       .  S
O7            C9   1.289       .  A
O8          Zr39   2.426   1_545  S
O8         C1233   1.287   1_455  A
C9         O1232   1.287       .  A
C9          C298   1.484       .  S
O10         Zr13   2.437   1_565  S
O10          C12   1.288       .  A
O11         Zr40   2.426       .  S
O11         C624   1.287       .  A
C12         O623   1.287       .  A
C12         C228   1.485       .  S
Zr13         O14   2.434       .  S
Zr13        O627   2.435   1_545  S
Zr13         O19   2.369       .  S
Zr13         O20   2.369       .  S
Zr13        O655   2.369   1_545  S
Zr13        O657   2.370   1_545  S
O14          H57   0.990       .  S
O15        Zr625   2.435       .  S
O15          H56   0.990       .  S
O15          H60   0.990       .  S
Zr16         O17   2.436       .  S
Zr16       O1242   2.435       .  S
Zr16         O20   2.370       .  S
Zr16         O19   2.369       .  S
Zr16       O1268   2.371       .  S
Zr16       O1270   2.371       .  S
O17          H58   0.990       .  S
O17          H61   0.990       .  S
O18       Zr1240   2.435       .  S
O18          H51   0.990       .  S
O19       Zr1263   2.382   1_545  S
O20        Zr652   2.385   1_545  S
O20          H47   0.966       .  S
O21         Zr33   2.441       .  S
O21          C23   1.289       .  A
O22         Zr40   2.425       .  S
O22        C1247   1.287       .  A
C23        O1246   1.287   1_655  A
C23         C278   1.483       .  S
O24         Zr36   2.437       .  S
O24          C26   1.288       .  A
O25         Zr39   2.426       .  S
O25         C638   1.287       .  A
C26         O637   1.287       .  A
C26         C248   1.484       .  S
O27         Zr36   2.437       .  S
O27          C29   1.288       .  A
O28       Zr1264   2.427       .  S
O28          C29   1.287       .  A
C29         C241   1.484       .  S
O30         Zr33   2.440       .  S
O30          C32   1.289   1_655  A
O31        Zr651   2.425       .  S
O31          C32   1.287       .  A
C32         C288   1.478   1_455  S
Zr33         O34   2.435   1_655  S
Zr33       O1259   2.434       .  S
Zr33         O41   2.371   1_655  S
Zr33         O42   2.372   1_655  S
Zr33       O1269   2.369       .  S
Zr33       O1267   2.370       .  S
O34          H54   0.990       .  S
O34          H59   0.990       .  S
O35       Zr1257   2.434       .  S
O35          H55   0.990       .  S
Zr36         O37   2.434       .  S
Zr36        O650   2.434       .  S
Zr36         O42   2.370       .  S
Zr36         O41   2.370       .  S
Zr36        O658   2.369       .  S
Zr36        O656   2.369       .  S
O37          H53   0.990       .  S
O38        Zr648   2.434   1_545  S
O38          H52   0.990       .  S
O38          H62   0.990       .  S
Zr39       O1226   2.427   1_465  S
Zr39        O643   2.425       .  S
Zr39         O44   2.384   1_565  S
Zr39       O1243   2.382   1_465  S
Zr39        O654   2.381       .  S
Zr39       O1881   2.386   1_455  S
Zr40        O617   2.426       .  S
Zr40       O1252   2.427       .  S
Zr40         O43   2.382       .  S
Zr40        O632   2.385       .  S
Zr40       O1265   2.385       .  S
Zr40       O1882   2.382       .  S
O41       Zr1264   2.385       .  S
O41          H49   0.966       .  S
O42        Zr651   2.381       .  S
O43        Zr625   2.369       .  S
O43       Zr1257   2.370       .  S
O44       Zr1240   2.371       .  S
O44        Zr648   2.369   1_545  S
O44          H48   0.966       .  S
O45        Zr625   2.370       .  S
O45       Zr1257   2.369       .  S
O45       Zr1875   2.386       .  S
O45          H50   0.966       .  S
O46       Zr1240   2.371       .  S
O46        Zr648   2.369   1_545  S
O46       Zr1876   2.382   1_545  S
O63         Zr75   2.441       .  S
O63          C65   1.289       .  A
O64        Zr101   2.425   1_655  S
O64        C1289   1.287       .  A
C65        O1288   1.287       .  A
C65         C301   1.484       .  S
O66         Zr78   2.437   1_556  S
O66          C68   1.288       .  A
O67        Zr102   2.428       .  S
O67          C68   1.287   1_554  A
C68         C191   1.485       .  S
O69         Zr78   2.437       .  S
O69          C71   1.288       .  A
O70       Zr1325   2.426       .  S
O70          C71   1.287       .  A
C71         C198   1.484       .  S
O72         Zr75   2.439       .  S
O72          C74   1.289       .  A
O73        Zr102   2.425       .  S
O73          C74   1.287       .  A
C74         C291   1.478       .  S
Zr75         O76   2.434       .  S
Zr75       O1301   2.435       .  S
Zr75         O81   2.370       .  S
Zr75         O82   2.369       .  S
Zr75       O1329   2.372       .  S
Zr75       O1331   2.370       .  S
O76         H119   0.990       .  S
O77       Zr1299   2.435   1_455  S
O77         H118   0.990       .  S
O77         H122   0.990       .  S
Zr78         O79   2.435       .  S
Zr78        O386   2.435   1_554  S
Zr78         O82   2.369       .  S
Zr78         O81   2.369       .  S
Zr78        O412   2.371   1_554  S
Zr78        O414   2.370   1_554  S
O79         H120   0.990       .  S
O79         H123   0.990       .  S
O80        Zr384   2.435       .  S
O80         H113   0.990       .  S
O81       Zr1325   2.382       .  S
O82        Zr102   2.386       .  S
O82         H109   0.966       .  S
O83         Zr95   2.439       .  S
O83         C391   1.288       .  A
O84       Zr1326   2.425       .  S
O84         C391   1.287       .  A
C85         O389   1.288       .  A
C85         O390   1.287       .  A
C85         C208   1.485       .  S
O86         Zr98   2.439       .  S
O86          C88   1.289       .  A
O87        Zr407   2.426       .  S
O87          C88   1.287       .  A
C88         C271   1.484       .  S
O89         Zr98   2.440   1_655  S
O89          C91   1.289       .  A
O90        Zr408   2.426       .  S
O90        C1315   1.287       .  A
C91        O1314   1.287   1_655  A
C91         C281   1.483       .  S
O92         Zr95   2.436       .  S
O92         C400   1.288       .  A
O93        Zr101   2.427       .  S
O93         C400   1.287       .  A
C94         O398   1.288       .  A
C94         O399   1.287       .  A
C94         C218   1.483       .  S
Zr95         O97   2.434       .  S
Zr95        O402   2.435   1_554  S
Zr95        O107   2.370       .  S
Zr95        O105   2.370       .  S
Zr95        O409   2.370   1_554  S
Zr95        O410   2.370   1_554  S
O96        Zr401   2.435       .  S
O96         H116   0.990       .  S
O96         H121   0.990       .  S
O97         H117   0.990       .  S
Zr98         O99   2.434       .  S
Zr98       O1324   2.434   1_455  S
Zr98        O104   2.371       .  S
Zr98        O103   2.370       .  S
Zr98       O1332   2.370   1_455  S
Zr98       O1330   2.369   1_455  S
O99         H115   0.990       .  S
O100      Zr1322   2.434       .  S
O100        H114   0.990       .  S
O100        H124   0.990       .  S
Zr101      O1294   2.426   1_455  S
Zr101       O393   2.426   1_554  S
Zr101       O107   2.385       .  S
Zr101      O1305   2.382   1_455  S
Zr101       O410   2.381   1_554  S
Zr101      O1636   2.385   1_454  S
Zr102      O1308   2.425       .  S
Zr102       O396   2.426   1_554  S
Zr102      O1633   2.385   1_554  S
Zr102      O1329   2.382       .  S
Zr102       O414   2.382   1_554  S
O103       Zr401   2.370       .  S
O103      Zr1632   2.385       .  S
O103        H111   0.966       .  S
O104       Zr401   2.370       .  S
O104       Zr407   2.381       .  S
O105      Zr1299   2.372   1_455  S
O105      Zr1326   2.382       .  S
O106       Zr384   2.370       .  S
O106      Zr1322   2.369       .  S
O106      Zr1631   2.385       .  S
O106        H110   0.966       .  S
O107      Zr1299   2.370   1_455  S
O107        H112   0.966       .  S
O108       Zr384   2.370       .  S
O108      Zr1322   2.370       .  S
O108       Zr408   2.382       .  S
O125       Zr137   2.439       .  S
O125        C127   1.288       .  A
O126       Zr775   2.425   1_545  S
O126        C127   1.287       .  A
C127        C201   1.484       .  S
O128       Zr140   2.438       .  S
O128        C742   1.288       .  A
O129       Zr164   2.425       .  S
O129        C130   1.287       .  A
C130        O740   1.288       .  A
C130        C251   1.484       .  S
O131       Zr140   2.438       .  S
O131        C745   1.289       .  A
O132       Zr163   2.425       .  S
O132        C745   1.287       .  A
C133        O743   1.289       .  A
C133        O744   1.287       .  A
C133        C258   1.484       .  S
O134       Zr137   2.438       .  S
O134        C136   1.289       .  A
O135       Zr164   2.426   1_545  S
O135        C136   1.287       .  A
C136        C221   1.483       .  S
Zr137       O138   2.434       .  S
Zr137       O445   2.435   1_554  S
Zr137       O143   2.370       .  S
Zr137       O144   2.369       .  S
Zr137       O473   2.370   1_554  S
Zr137       O475   2.370   1_554  S
O138        H181   0.990       .  S
O139       Zr443   2.435       .  S
O139        H180   0.990       .  S
O139        H184   0.990       .  S
Zr140       O142   2.435       .  S
Zr140       O753   2.435       .  S
Zr140       O168   2.370       .  S
Zr140       O170   2.371       .  S
Zr140       O756   2.369       .  S
Zr140       O755   2.370       .  S
O141       Zr752   2.435   1_545  S
O141        H182   0.990       .  S
O141        H185   0.990       .  S
O142        H175   0.990       .  S
O143       Zr752   2.370   1_545  S
O143       Zr775   2.382   1_545  S
O144       Zr164   2.386   1_545  S
O144       Zr752   2.369   1_545  S
O144        H171   0.966       .  S
O145       Zr157   2.439   1_545  S
O145        C759   1.288       .  A
O146       Zr470   2.426       .  S
O146        C759   1.287   1_565  A
C147        O757   1.288       .  A
C147        O758   1.287       .  A
C147        C238   1.484       .  S
O148       Zr160   2.438   1_556  S
O148        C456   1.289       .  A
O149       Zr163   2.426       .  S
O149        C456   1.287   1_554  A
C150        O454   1.289       .  A
C150        O455   1.287       .  A
C150        C188   1.484       .  S
O151       Zr160   2.439       .  S
O151        C459   1.288       .  A
O152       Zr776   2.425       .  S
O152        C459   1.287       .  A
C153        O457   1.288       .  A
C153        O458   1.287       .  A
C153        C211   1.485       .  S
O154       Zr157   2.438       .  S
O154        C768   1.288       .  A
O155       Zr469   2.426       .  S
O155        C156   1.287       .  A
C156        O766   1.288       .  A
C156        C231   1.485       .  S
Zr157       O159   2.434   1_565  S
Zr157       O770   2.435       .  S
Zr157       O169   2.369   1_565  S
Zr157       O167   2.370   1_565  S
Zr157       O777   2.370       .  S
Zr157       O778   2.370       .  S
O158       Zr769   2.435       .  S
O158        H178   0.990       .  S
O158        H183   0.990       .  S
O159        H179   0.990       .  S
Zr160       O162   2.434       .  S
Zr160       O467   2.434   1_554  S
Zr160       O170   2.370       .  S
Zr160       O168   2.368       .  S
Zr160       O472   2.370   1_554  S
Zr160       O471   2.369   1_554  S
O161       Zr466   2.434       .  S
O161        H177   0.990       .  S
O162        H176   0.990       .  S
O162        H186   0.990       .  S
Zr163       O738   2.425       .  S
Zr163       O461   2.426   1_554  S
Zr163       O168   2.385       .  S
Zr163       O755   2.382       .  S
Zr163       O472   2.381   1_554  S
Zr163      O1087   2.385   1_554  S
Zr164       O452   2.426   1_554  S
Zr164       O764   2.425       .  S
Zr164      O1083   2.385   1_554  S
Zr164       O473   2.382   1_564  S
Zr164       O782   2.382       .  S
O165       Zr769   2.370       .  S
O165       Zr466   2.369       .  S
O165      Zr1082   2.385       .  S
O165        H173   0.966       .  S
O166       Zr769   2.370       .  S
O166       Zr466   2.370       .  S
O166       Zr469   2.381       .  S
O167       Zr443   2.370       .  S
O167       Zr470   2.382   1_545  S
O168        H172   0.966       .  S
O169       Zr443   2.370       .  S
O169      Zr1081   2.385   1_545  S
O169        H174   0.966       .  S
O170       Zr776   2.382       .  S
C187        C188   1.408       .  A
C187        C192   1.401       .  A
C187        H193   1.083       .  S
C188        C495   1.406       .  A
C189        C190   1.394       .  A
C189        C494   1.406   1_554  A
C189        H194   1.083       .  S
C190        C191   1.406   1_554  A
C190        H195   1.083       .  S
C191        C498   1.407       .  A
C192        C497   1.407       .  A
C192        H196   1.083       .  S
C197        C198   1.406       .  A
C197        C202   1.395       .  A
C197        H203   1.083       .  S
C198        C199   1.407       .  A
C199        C200   1.400       .  A
C199        H204   1.083       .  S
C200        C201   1.407       .  A
C200        H205   1.083       .  S
C201        C202   1.406       .  A
C202        H206   1.083       .  S
C207        C208   1.407       .  A
C207        C212   1.400       .  A
C207        H213   1.083       .  S
C208        C209   1.406       .  A
C209        C210   1.395       .  A
C209        H214   1.083       .  S
C210        C211   1.406       .  A
C210        H215   1.083       .  S
C211        C212   1.407       .  A
C212        H216   1.083       .  S
C217        C218   1.407       .  A
C217        C222   1.401       .  A
C217        H223   1.083       .  S
C218        C525   1.406       .  A
C219        C220   1.394       .  A
C219        C524   1.406       .  A
C219        H224   1.083       .  S
C220        C221   1.405       .  A
C220        H225   1.083       .  S
C221        C528   1.407   1_554  A
C222        C527   1.407       .  A
C222        H226   1.083       .  S
C227        C228   1.407       .  A
C227        C844   1.401       .  A
C227        H233   1.083       .  S
C228        C229   1.406       .  A
C229        C842   1.394       .  A
C229        H234   1.083       .  S
C230        C231   1.406       .  A
C230        C841   1.394       .  A
C230        H235   1.083       .  S
C231        C232   1.407       .  A
C232        C839   1.401       .  A
C232        H236   1.083       .  S
C237        C238   1.406       .  A
C237        C242   1.394       .  A
C237        H243   1.083       .  S
C238        C851   1.407       .  A
C239        C240   1.401       .  A
C239        C850   1.407   1_545  A
C239        H244   1.083       .  S
C240        C853   1.407   1_545  A
C240        H245   1.083       .  S
C241        C242   1.406       .  A
C241        C852   1.407       .  A
C242        H246   1.083       .  S
C247        C248   1.407       .  A
C247        C252   1.401       .  A
C247        H253   1.083       .  S
C248        C861   1.406       .  A
C249        C250   1.394       .  A
C249        C860   1.406       .  A
C249        H254   1.083       .  S
C250        C251   1.406       .  A
C250        H255   1.083       .  S
C251        C864   1.407       .  A
C252        C863   1.407       .  A
C252        H256   1.083       .  S
C257        C262   1.401       .  A
C257        C870   1.407       .  A
C257        H263   1.083       .  S
C258        C259   1.406       .  A
C258        C869   1.407   1_545  A
C259        C260   1.394       .  A
C259        H264   1.083       .  S
C260        C261   1.406       .  A
C260        H265   1.083       .  S
C261        C874   1.407   1_545  A
C262        C873   1.407       .  A
C262        H266   1.083       .  S
C267        C272   1.395       .  A
C267       C1492   1.406       .  A
C267        H273   1.083       .  S
C268        C269   1.407       .  A
C268       C1491   1.406       .  A
C269        C270   1.401       .  A
C269        H274   1.083       .  S
C270       C1495   1.407       .  A
C270        H275   1.083       .  S
C271        C272   1.406       .  A
C271       C1494   1.407   1_455  A
C272        H276   1.083       .  S
C277        C278   1.407   1_455  A
C277        C282   1.400       .  A
C277        H283   1.083       .  S
C278       C1503   1.406       .  A
C279        C280   1.395       .  A
C279       C1502   1.406       .  A
C279        H284   1.083       .  S
C280       C1505   1.406       .  A
C280        H285   1.083       .  S
C281        C282   1.407   1_655  A
C281       C1504   1.406       .  A
C282        H286   1.083       .  S
C287        C288   1.406   1_455  A
C287        C292   1.400       .  A
C287        H293   1.083       .  S
C288       C1513   1.404       .  A
C289        C290   1.395       .  A
C289       C1512   1.404       .  A
C289        H294   1.083       .  S
C290        C291   1.404       .  A
C290        H295   1.083       .  S
C291       C1516   1.406       .  A
C292       C1515   1.406   1_455  A
C292        H296   1.083       .  S
C297        C302   1.400       .  A
C297       C1522   1.407   1_455  A
C297        H303   1.083       .  S
C298        C299   1.406       .  A
C298       C1521   1.407       .  A
C299        C300   1.395       .  A
C299        H304   1.083       .  S
C300        C301   1.406       .  A
C300        H305   1.083       .  S
C301       C1526   1.407       .  A
C302       C1525   1.407   1_455  A
C302        H306   1.083       .  S
O307       Zr319   2.438       .  S
O307        C309   1.288       .  A
O308      Zr1569   2.427   1_545  S
O308        C309   1.287       .  A
C309        C567   1.484       .  S
O310       Zr322   2.440       .  S
O310        C312   1.289       .  A
O311       Zr958   2.426   1_545  S
O311        C312   1.287       .  A
C312        C574   1.483       .  S
O313       Zr322   2.439       .  S
O313        C315   1.289       .  A
O314       Zr345   2.426   1_545  S
O314       C1539   1.287   1_455  A
C315       O1538   1.287       .  A
C315        C604   1.484       .  S
O316       Zr319   2.437   1_565  S
O316        C318   1.288       .  A
O317       Zr346   2.426       .  S
O317        C930   1.287       .  A
C318        O929   1.287       .  A
C318        C534   1.484       .  S
Zr319       O320   2.434       .  S
Zr319       O933   2.435   1_545  S
Zr319       O325   2.369       .  S
Zr319       O326   2.369       .  S
Zr319       O961   2.369   1_545  S
Zr319       O963   2.370   1_545  S
O320        H363   0.990       .  S
O321       Zr931   2.435       .  S
O321        H362   0.990       .  S
O321        H366   0.990       .  S
Zr322       O323   2.436       .  S
Zr322      O1548   2.435       .  S
Zr322       O326   2.370       .  S
Zr322       O325   2.369       .  S
Zr322      O1574   2.371       .  S
Zr322      O1576   2.371       .  S
O323        H364   0.990       .  S
O323        H367   0.990       .  S
O324      Zr1546   2.435       .  S
O324        H357   0.990       .  S
O325      Zr1569   2.382   1_545  S
O326       Zr958   2.385   1_545  S
O326        H353   0.966       .  S
O327       Zr339   2.441       .  S
O327        C329   1.289       .  A
O328       Zr346   2.425       .  S
O328       C1553   1.287       .  A
C329       O1552   1.287   1_655  A
C329        C584   1.483       .  S
O330       Zr342   2.437       .  S
O330        C332   1.288       .  A
O331       Zr345   2.426       .  S
O331        C944   1.287       .  A
C332        O943   1.287       .  A
C332        C554   1.484       .  S
O333       Zr342   2.437       .  S
O333        C335   1.288       .  A
O334      Zr1570   2.427       .  S
O334        C335   1.287       .  A
C335        C547   1.485       .  S
O336       Zr339   2.440       .  S
O336        C338   1.289   1_655  A
O337       Zr957   2.425       .  S
O337        C338   1.287       .  A
C338        C594   1.478   1_455  S
Zr339       O340   2.435   1_655  S
Zr339      O1565   2.434       .  S
Zr339       O347   2.371   1_655  S
Zr339       O348   2.372   1_655  S
Zr339      O1575   2.369       .  S
Zr339      O1573   2.370       .  S
O340        H360   0.990       .  S
O340        H365   0.990       .  S
O341      Zr1563   2.434       .  S
O341        H361   0.990       .  S
Zr342       O343   2.434       .  S
Zr342       O956   2.434       .  S
Zr342       O348   2.371       .  S
Zr342       O347   2.370       .  S
Zr342       O964   2.370       .  S
Zr342       O962   2.369       .  S
O343        H359   0.990       .  S
O344       Zr954   2.434   1_545  S
O344        H358   0.990       .  S
O344        H368   0.990       .  S
Zr345      O1532   2.427   1_465  S
Zr345       O949   2.425       .  S
Zr345      O1549   2.382   1_465  S
Zr345       O960   2.381       .  S
Zr345       O350   2.384   1_565  S
Zr345      O2187   2.386   1_455  S
Zr346       O923   2.426       .  S
Zr346      O1558   2.427       .  S
Zr346       O938   2.385       .  S
Zr346      O1571   2.385       .  S
Zr346       O349   2.382       .  S
Zr346      O2188   2.382       .  S
O347      Zr1570   2.385       .  S
O347        H355   0.966       .  S
O348       Zr957   2.381       .  S
O349       Zr931   2.369       .  S
O349      Zr1563   2.370       .  S
O350      Zr1546   2.371       .  S
O350       Zr954   2.369   1_545  S
O350        H354   0.966       .  S
O351       Zr931   2.370       .  S
O351      Zr1563   2.369       .  S
O351      Zr2181   2.386       .  S
O351        H356   0.966       .  S
O352      Zr1546   2.371       .  S
O352       Zr954   2.370   1_545  S
O352      Zr2182   2.382   1_545  S
O369       Zr381   2.441       .  S
O369        C371   1.289       .  A
O370       Zr407   2.425   1_655  S
O370       C1595   1.287       .  A
C371       O1594   1.287       .  A
C371        C607   1.484       .  S
O372       Zr384   2.437       .  S
O372        C374   1.288       .  A
O373       Zr408   2.428       .  S
O373        C374   1.287       .  A
C374        C497   1.484       .  S
O375       Zr384   2.437       .  S
O375        C377   1.288       .  A
O376      Zr1631   2.426       .  S
O376        C377   1.287       .  A
C377        C504   1.484       .  S
O378       Zr381   2.439       .  S
O378        C380   1.289       .  A
O379       Zr408   2.426       .  S
O379        C380   1.287       .  A
C380        C597   1.478       .  S
Zr381       O382   2.434       .  S
Zr381      O1607   2.435       .  S
Zr381       O387   2.370       .  S
Zr381       O388   2.369       .  S
Zr381      O1635   2.372       .  S
Zr381      O1637   2.370       .  S
O382        H425   0.990       .  S
O383      Zr1605   2.435   1_455  S
O383        H424   0.990       .  S
O383        H428   0.990       .  S
Zr384       O385   2.435       .  S
Zr384       O388   2.369       .  S
Zr384       O387   2.369       .  S
O385        H426   0.990       .  S
O385        H429   0.990       .  S
O386        H419   0.990       .  S
O387      Zr1631   2.382       .  S
O388       Zr408   2.386       .  S
O388        H415   0.966       .  S
O389       Zr401   2.439       .  S
O390      Zr1632   2.426       .  S
C391        C514   1.485       .  S
O392       Zr404   2.439       .  S
O392        C394   1.289       .  A
O393        C394   1.287       .  A
C394        C577   1.484       .  S
O395       Zr404   2.440   1_655  S
O395        C397   1.289       .  A
O396       C1621   1.287       .  A
C397       O1620   1.287   1_655  A
C397        C587   1.483       .  S
O398       Zr401   2.437       .  S
O399       Zr407   2.427       .  S
C400        C524   1.483       .  S
Zr401       O403   2.434       .  S
Zr401       O413   2.370       .  S
Zr401       O411   2.370       .  S
O402        H422   0.990       .  S
O402        H427   0.990       .  S
O403        H423   0.990       .  S
Zr404       O405   2.434       .  S
Zr404      O1630   2.434   1_455  S
Zr404       O410   2.371       .  S
Zr404       O409   2.370       .  S
Zr404      O1638   2.370   1_455  S
Zr404      O1636   2.369   1_455  S
O405        H421   0.990       .  S
O406      Zr1628   2.434       .  S
O406        H420   0.990       .  S
O406        H430   0.990       .  S
Zr407      O1600   2.426   1_455  S
Zr407      O1611   2.382   1_455  S
Zr407      O1330   2.385   1_455  S
Zr407       O413   2.385       .  S
Zr408      O1614   2.426       .  S
Zr408      O1327   2.385       .  S
Zr408      O1635   2.382       .  S
O409      Zr1326   2.385   1_556  S
O409        H417   0.966       .  S
O411      Zr1605   2.372   1_455  S
O411      Zr1632   2.382       .  S
O412      Zr1628   2.369       .  S
O412      Zr1325   2.385   1_556  S
O412        H416   0.966       .  S
O413      Zr1605   2.370   1_455  S
O413        H418   0.966       .  S
O414      Zr1628   2.370       .  S
O431       Zr443   2.439       .  S
O431        C433   1.289       .  A
O432      Zr1081   2.425   1_545  S
O432        C433   1.287       .  A
C433        C507   1.484       .  S
O434       Zr446   2.438       .  S
O434       C1048   1.288       .  A
O435       Zr470   2.425       .  S
O435        C436   1.287       .  A
C436       O1046   1.288       .  A
C436        C557   1.484       .  S
O437       Zr446   2.439       .  S
O437       C1051   1.289       .  A
O438       Zr469   2.425       .  S
O438       C1051   1.287       .  A
C439       O1049   1.289       .  A
C439       O1050   1.287       .  A
C439        C564   1.484       .  S
O440       Zr443   2.438       .  S
O440        C442   1.289       .  A
O441       Zr470   2.426   1_545  S
O441        C442   1.287       .  A
C442        C527   1.483       .  S
Zr443       O444   2.434       .  S
Zr443       O449   2.370       .  S
Zr443       O450   2.369       .  S
O444        H487   0.990       .  S
O445        H486   0.990       .  S
O445        H490   0.990       .  S
Zr446      O1059   2.435       .  S
Zr446       O448   2.435       .  S
Zr446      O1062   2.369       .  S
Zr446      O1061   2.370       .  S
Zr446       O474   2.370       .  S
Zr446       O476   2.371       .  S
O447      Zr1058   2.435   1_545  S
O447        H488   0.990       .  S
O447        H491   0.990       .  S
O448        H481   0.990       .  S
O449      Zr1058   2.370   1_545  S
O449      Zr1081   2.382   1_545  S
O450      Zr1058   2.369   1_545  S
O450       Zr470   2.386   1_545  S
O450        H477   0.966       .  S
O451       Zr463   2.439   1_545  S
O451       C1065   1.288       .  A
O452       C1065   1.287   1_565  A
C453       O1063   1.288       .  A
C453       O1064   1.287       .  A
C453        C544   1.484       .  S
O454       Zr466   2.438       .  S
O455       Zr469   2.426       .  S
C456        C494   1.485       .  S
O457       Zr466   2.439       .  S
O458      Zr1082   2.425       .  S
C459        C517   1.485       .  S
O460       Zr463   2.437       .  S
O460       C1074   1.288       .  A
O461        C462   1.287       .  A
C462       O1072   1.288       .  A
C462        C537   1.484       .  S
Zr463      O1076   2.435       .  S
Zr463       O465   2.434   1_565  S
Zr463      O1083   2.370       .  S
Zr463      O1084   2.370       .  S
Zr463       O475   2.369   1_565  S
Zr463       O473   2.370   1_565  S
O464      Zr1075   2.435       .  S
O464        H484   0.990       .  S
O464        H489   0.990       .  S
O465        H485   0.990       .  S
Zr466       O468   2.434       .  S
Zr466       O476   2.370       .  S
Zr466       O474   2.368       .  S
O467        H483   0.990       .  S
O468        H482   0.990       .  S
O468        H492   0.990       .  S
Zr469      O1044   2.425       .  S
Zr469      O1061   2.382       .  S
Zr469       O474   2.385       .  S
Zr469       O781   2.385       .  S
Zr470      O1070   2.425       .  S
Zr470       O777   2.385       .  S
Zr470      O1088   2.382       .  S
O471      Zr1075   2.370       .  S
O471       Zr776   2.385   1_556  S
O471        H479   0.966       .  S
O472      Zr1075   2.370       .  S
O474        H478   0.966       .  S
O475       Zr775   2.385   1_546  S
O475        H480   0.966       .  S
O476      Zr1082   2.382       .  S
C493        C494   1.408       .  A
C493        C498   1.402       .  A
C493        H499   1.083       .  S
C495        C496   1.394       .  A
C495        H500   1.083       .  S
C496        C497   1.406       .  A
C496        H501   1.083       .  S
C498        H502   1.083       .  S
C503        C504   1.406       .  A
C503        C508   1.394       .  A
C503        H509   1.083       .  S
C504        C505   1.407       .  A
C505        C506   1.400       .  A
C505        H510   1.083       .  S
C506        C507   1.407       .  A
C506        H511   1.083       .  S
C507        C508   1.406       .  A
C508        H512   1.083       .  S
C513        C514   1.407       .  A
C513        C518   1.400       .  A
C513        H519   1.083       .  S
C514        C515   1.406       .  A
C515        C516   1.395       .  A
C515        H520   1.083       .  S
C516        C517   1.406       .  A
C516        H521   1.083       .  S
C517        C518   1.407       .  A
C518        H522   1.083       .  S
C523        C524   1.407   1_556  A
C523        C528   1.401       .  A
C523        H529   1.083       .  S
C525        C526   1.394       .  A
C525        H530   1.083       .  S
C526        C527   1.405       .  A
C526        H531   1.083       .  S
C528        H532   1.083       .  S
C533        C534   1.407       .  A
C533       C1150   1.401       .  A
C533        H539   1.083       .  S
C534        C535   1.406       .  A
C535       C1148   1.394       .  A
C535        H540   1.083       .  S
C536       C1147   1.394       .  A
C536        C537   1.406       .  A
C536        H541   1.083       .  S
C537        C538   1.407       .  A
C538       C1145   1.401       .  A
C538        H542   1.083       .  S
C543        C544   1.406       .  A
C543        C548   1.394       .  A
C543        H549   1.083       .  S
C544       C1157   1.407       .  A
C545       C1156   1.407   1_545  A
C545        C546   1.401       .  A
C545        H550   1.083       .  S
C546       C1159   1.407   1_545  A
C546        H551   1.083       .  S
C547       C1158   1.407       .  A
C547        C548   1.406       .  A
C548        H552   1.083       .  S
C553        C554   1.407       .  A
C553        C558   1.401       .  A
C553        H559   1.083       .  S
C554       C1167   1.406       .  A
C555       C1166   1.406       .  A
C555        C556   1.394       .  A
C555        H560   1.083       .  S
C556        C557   1.406       .  A
C556        H561   1.083       .  S
C557       C1170   1.407       .  A
C558       C1169   1.407       .  A
C558        H562   1.083       .  S
C563       C1176   1.407       .  A
C563        C568   1.401       .  A
C563        H569   1.083       .  S
C564       C1175   1.407   1_545  A
C564        C565   1.406       .  A
C565        C566   1.394       .  A
C565        H570   1.083       .  S
C566        C567   1.406       .  A
C566        H571   1.083       .  S
C567       C1180   1.407   1_545  A
C568       C1179   1.407       .  A
C568        H572   1.083       .  S
C573       C1798   1.406       .  A
C573        C578   1.395       .  A
C573        H579   1.083       .  S
C574       C1797   1.406       .  A
C574        C575   1.407       .  A
C575        C576   1.401       .  A
C575        H580   1.083       .  S
C576       C1801   1.407       .  A
C576        H581   1.083       .  S
C577       C1800   1.407   1_455  A
C577        C578   1.406       .  A
C578        H582   1.083       .  S
C583        C584   1.407   1_455  A
C583        C588   1.400       .  A
C583        H589   1.083       .  S
C584       C1809   1.406       .  A
C585       C1808   1.406       .  A
C585        C586   1.395       .  A
C585        H590   1.083       .  S
C586       C1811   1.406       .  A
C586        H591   1.083       .  S
C587       C1810   1.406       .  A
C587        C588   1.407   1_655  A
C588        H592   1.083       .  S
C593        C594   1.406   1_455  A
C593        C598   1.401       .  A
C593        H599   1.083       .  S
C594       C1819   1.404       .  A
C595       C1818   1.404       .  A
C595        C596   1.395       .  A
C595        H600   1.083       .  S
C596        C597   1.404       .  A
C596        H601   1.083       .  S
C597       C1822   1.406       .  A
C598       C1821   1.406   1_455  A
C598        H602   1.083       .  S
C603       C1828   1.407   1_455  A
C603        C608   1.400       .  A
C603        H609   1.083       .  S
C604       C1827   1.407       .  A
C604        C605   1.406       .  A
C605        C606   1.395       .  A
C605        H610   1.083       .  S
C606        C607   1.406       .  A
C606        H611   1.083       .  S
C607       C1832   1.407       .  A
C608       C1831   1.407   1_455  A
C608        H612   1.083       .  S
O613       Zr625   2.438       .  S
O613        C615   1.288       .  A
O614      Zr1875   2.427       .  S
O614        C615   1.287       .  A
C615        C873   1.484       .  S
O616       Zr628   2.440       .  S
O616        C618   1.289       .  A
O617        C618   1.287       .  A
C618        C880   1.483       .  S
O619       Zr628   2.439       .  S
O619        C621   1.289       .  A
O620       Zr651   2.426       .  S
O620       C1845   1.287   1_455  A
C621       O1844   1.287       .  A
C621        C910   1.484       .  S
O622       Zr625   2.437       .  S
O622        C624   1.288       .  A
O623       Zr652   2.426       .  S
C624        C840   1.485       .  S
Zr625       O626   2.434       .  S
Zr625       O631   2.369       .  S
Zr625       O632   2.369       .  S
O626        H669   0.990       .  S
O627        H668   0.990       .  S
O627        H672   0.990       .  S
Zr628       O629   2.436       .  S
Zr628      O1854   2.435       .  S
Zr628       O632   2.370       .  S
Zr628       O631   2.369       .  S
Zr628      O1880   2.371       .  S
Zr628      O1882   2.371       .  S
O629        H670   0.990       .  S
O629        H673   0.990       .  S
O630      Zr1852   2.435       .  S
O630        H663   0.990       .  S
O631      Zr1875   2.382       .  S
O632        H659   0.966       .  S
O633       Zr645   2.441       .  S
O633        C635   1.289       .  A
O634       Zr652   2.425       .  S
O634       C1859   1.287       .  A
C635       O1858   1.287       .  A
C635        C890   1.483       .  S
O636       Zr648   2.437       .  S
O636        C638   1.288       .  A
O637       Zr651   2.426       .  S
C638        C860   1.484       .  S
O639       Zr648   2.437       .  S
O639        C641   1.288       .  A
O640      Zr1876   2.427       .  S
O640        C641   1.287       .  A
C641        C853   1.484       .  S
O642       Zr645   2.440       .  S
O642        C644   1.289   1_655  A
O643        C644   1.287       .  A
C644        C900   1.478   1_455  S
Zr645       O646   2.435   1_655  S
Zr645      O1871   2.434       .  S
Zr645       O653   2.371   1_655  S
Zr645       O654   2.372   1_655  S
Zr645      O1881   2.369       .  S
Zr645      O1879   2.370       .  S
O646        H666   0.990       .  S
O646        H671   0.990       .  S
O647      Zr1869   2.434       .  S
O647        H667   0.990       .  S
Zr648       O649   2.434       .  S
Zr648       O654   2.370       .  S
Zr648       O653   2.370       .  S
O649        H665   0.990       .  S
O650        H664   0.990       .  S
O650        H674   0.990       .  S
Zr651      O1838   2.427   1_455  S
Zr651      O1855   2.382   1_455  S
Zr651       O656   2.384       .  S
Zr651      O1269   2.386   1_455  S
Zr652      O1864   2.427       .  S
Zr652      O1877   2.385       .  S
Zr652       O655   2.382       .  S
Zr652      O1270   2.382   1_565  S
O653      Zr1876   2.385       .  S
O653        H661   0.966       .  S
O655      Zr1869   2.370       .  S
O656      Zr1852   2.371       .  S
O656        H660   0.966       .  S
O657      Zr1869   2.369       .  S
O657      Zr1263   2.386       .  S
O657        H662   0.966       .  S
O658      Zr1852   2.371       .  S
O658      Zr1264   2.382       .  S
O675       Zr687   2.441       .  S
O675        C677   1.289       .  A
O676       Zr713   2.425   1_655  S
O676       C1901   1.287       .  A
C677       O1900   1.287       .  A
C677        C913   1.484       .  S
O678       Zr690   2.437   1_556  S
O678        C680   1.288       .  A
O679       Zr714   2.428       .  S
O679        C680   1.287   1_554  A
C680        C803   1.485       .  S
O681       Zr690   2.437       .  S
O681        C683   1.288       .  A
O682      Zr1937   2.426       .  S
O682        C683   1.287       .  A
C683        C810   1.484       .  S
O684       Zr687   2.439       .  S
O684        C686   1.289       .  A
O685       Zr714   2.425       .  S
O685        C686   1.287       .  A
C686        C903   1.478       .  S
Zr687       O688   2.434       .  S
Zr687      O1913   2.435       .  S
Zr687       O693   2.370       .  S
Zr687       O694   2.369       .  S
Zr687      O1941   2.372       .  S
Zr687      O1943   2.370       .  S
O688        H731   0.990       .  S
O689      Zr1911   2.435   1_455  S
O689        H730   0.990       .  S
O689        H734   0.990       .  S
Zr690       O691   2.435       .  S
Zr690       O998   2.435   1_554  S
Zr690       O694   2.369       .  S
Zr690       O693   2.369       .  S
Zr690      O1024   2.371   1_554  S
Zr690      O1026   2.370   1_554  S
O691        H732   0.990       .  S
O691        H735   0.990       .  S
O692       Zr996   2.435       .  S
O692        H725   0.990       .  S
O693      Zr1937   2.382       .  S
O694       Zr714   2.386       .  S
O694        H721   0.966       .  S
O695       Zr707   2.439       .  S
O695       C1003   1.288       .  A
O696      Zr1938   2.425       .  S
O696       C1003   1.287       .  A
C697       O1001   1.288       .  A
C697       O1002   1.287       .  A
C697        C820   1.485       .  S
O698       Zr710   2.439       .  S
O698        C700   1.289       .  A
O699      Zr1019   2.426       .  S
O699        C700   1.287       .  A
C700        C883   1.484       .  S
O701       Zr710   2.440   1_655  S
O701        C703   1.289       .  A
O702      Zr1020   2.426       .  S
O702       C1927   1.287       .  A
C703       O1926   1.287   1_655  A
C703        C893   1.483       .  S
O704       Zr707   2.436       .  S
O704       C1012   1.288       .  A
O705       Zr713   2.427       .  S
O705       C1012   1.287       .  A
C706       O1010   1.288       .  A
C706       O1011   1.287       .  A
C706        C830   1.483       .  S
Zr707      O1014   2.435   1_554  S
Zr707       O709   2.434       .  S
Zr707      O1021   2.370   1_554  S
Zr707      O1022   2.370   1_554  S
Zr707       O719   2.370       .  S
Zr707       O717   2.370       .  S
O708      Zr1013   2.435       .  S
O708        H728   0.990       .  S
O708        H733   0.990       .  S
O709        H729   0.990       .  S
Zr710       O711   2.434       .  S
Zr710      O1936   2.434   1_455  S
Zr710       O716   2.371       .  S
Zr710       O715   2.370       .  S
Zr710      O1944   2.370   1_455  S
Zr710      O1942   2.369   1_455  S
O711        H727   0.990       .  S
O712      Zr1934   2.434       .  S
O712        H726   0.990       .  S
O712        H736   0.990       .  S
Zr713      O1906   2.426   1_455  S
Zr713      O1005   2.426   1_554  S
Zr713      O1917   2.382   1_455  S
Zr713      O1022   2.381   1_554  S
Zr713      O2248   2.385   1_454  S
Zr713       O719   2.385       .  S
Zr714      O1920   2.425       .  S
Zr714      O1008   2.426   1_554  S
Zr714      O2245   2.385   1_554  S
Zr714      O1941   2.382       .  S
Zr714      O1026   2.382   1_554  S
O715      Zr1013   2.370       .  S
O715      Zr2244   2.385       .  S
O715        H723   0.966       .  S
O716      Zr1013   2.370       .  S
O716      Zr1019   2.381       .  S
O717      Zr1911   2.372   1_455  S
O717      Zr1938   2.382       .  S
O718       Zr996   2.370       .  S
O718      Zr1934   2.369       .  S
O718      Zr2243   2.385       .  S
O718        H722   0.966       .  S
O719      Zr1911   2.370   1_455  S
O719        H724   0.966       .  S
O720       Zr996   2.370       .  S
O720      Zr1934   2.370       .  S
O720      Zr1020   2.382       .  S
O737       Zr749   2.439       .  S
O737        C739   1.288       .  A
O738        C739   1.287       .  A
C739        C813   1.484       .  S
O740       Zr752   2.438       .  S
O741       Zr776   2.425       .  S
O741        C742   1.287       .  A
C742        C863   1.484       .  S
O743       Zr752   2.438   1_545  S
O744       Zr775   2.425   1_545  S
C745        C870   1.484       .  S
O746       Zr749   2.438       .  S
O746        C748   1.289       .  A
O747       Zr776   2.426       .  S
O747        C748   1.287       .  A
C748        C833   1.483       .  S
Zr749       O750   2.434       .  S
Zr749      O1057   2.435   1_554  S
Zr749       O755   2.370       .  S
Zr749       O756   2.369       .  S
Zr749      O1085   2.370   1_554  S
Zr749      O1087   2.370   1_554  S
O750        H793   0.990       .  S
O751      Zr1055   2.435       .  S
O751        H792   0.990       .  S
O751        H796   0.990       .  S
Zr752       O754   2.435       .  S
Zr752       O780   2.370       .  S
Zr752       O782   2.371       .  S
O753        H794   0.990       .  S
O753        H797   0.990       .  S
O754        H787   0.990       .  S
O756       Zr776   2.386       .  S
O756        H783   0.966       .  S
O757       Zr769   2.439       .  S
O758      Zr1082   2.426       .  S
C759        C850   1.484   1_545  S
O760       Zr772   2.438   1_556  S
O760       C1068   1.289       .  A
O761       Zr775   2.426       .  S
O761       C1068   1.287   1_554  A
C762       O1066   1.289       .  A
C762       O1067   1.287       .  A
C762        C800   1.485       .  S
O763       Zr772   2.439       .  S
O763       C1071   1.288       .  A
O764       C1071   1.287       .  A
C765       O1069   1.288       .  A
C765       O1070   1.287       .  A
C765        C823   1.485       .  S
O766       Zr769   2.438       .  S
O767      Zr1081   2.426       .  S
O767        C768   1.287       .  A
C768        C843   1.485       .  S
Zr769       O771   2.434       .  S
Zr769       O781   2.369       .  S
Zr769       O779   2.370       .  S
O770        H790   0.990       .  S
O770        H795   0.990       .  S
O771        H791   0.990       .  S
Zr772      O1079   2.434   1_554  S
Zr772       O774   2.434       .  S
Zr772      O1084   2.370   1_554  S
Zr772      O1083   2.369   1_554  S
Zr772       O782   2.370       .  S
Zr772       O780   2.368       .  S
O773      Zr1078   2.434       .  S
O773        H789   0.990       .  S
O774        H788   0.990       .  S
O774        H798   0.990       .  S
Zr775      O1073   2.426   1_554  S
Zr775      O1084   2.381   1_554  S
Zr775       O780   2.385       .  S
Zr776      O1064   2.426   1_554  S
Zr776      O1085   2.382   1_554  S
O777      Zr1078   2.369       .  S
O777        H785   0.966       .  S
O778      Zr1078   2.370       .  S
O778      Zr1081   2.381       .  S
O779      Zr1055   2.370       .  S
O779      Zr1082   2.382       .  S
O780        H784   0.966       .  S
O781      Zr1055   2.370       .  S
O781        H786   0.966       .  S
C799        C800   1.408       .  A
C799        C804   1.401       .  A
C799        H805   1.083       .  S
C800       C1107   1.406       .  A
C801       C1106   1.406   1_554  A
C801        C802   1.394       .  A
C801        H806   1.083       .  S
C802        C803   1.406   1_554  A
C802        H807   1.083       .  S
C803       C1110   1.407       .  A
C804       C1109   1.407       .  A
C804        H808   1.083       .  S
C809        C810   1.406       .  A
C809        C814   1.395       .  A
C809        H815   1.083       .  S
C810        C811   1.407       .  A
C811        C812   1.400       .  A
C811        H816   1.083       .  S
C812        C813   1.407       .  A
C812        H817   1.083       .  S
C813        C814   1.406       .  A
C814        H818   1.083       .  S
C819        C820   1.407       .  A
C819        C824   1.400       .  A
C819        H825   1.083       .  S
C820        C821   1.406       .  A
C821        C822   1.395       .  A
C821        H826   1.083       .  S
C822        C823   1.406       .  A
C822        H827   1.083       .  S
C823        C824   1.407       .  A
C824        H828   1.083       .  S
C829        C830   1.407       .  A
C829        C834   1.401       .  A
C829        H835   1.083       .  S
C830       C1137   1.406       .  A
C831       C1136   1.406       .  A
C831        C832   1.394       .  A
C831        H836   1.083       .  S
C832        C833   1.405       .  A
C832        H837   1.083       .  S
C833       C1140   1.407   1_554  A
C834       C1139   1.407       .  A
C834        H838   1.083       .  S
C839        C840   1.407       .  A
C839        H845   1.083       .  S
C840        C841   1.406       .  A
C841        H846   1.083       .  S
C842        C843   1.406       .  A
C842        H847   1.083       .  S
C843        C844   1.407       .  A
C844        H848   1.083       .  S
C849        C850   1.406       .  A
C849        C854   1.394       .  A
C849        H855   1.083       .  S
C851        C852   1.401       .  A
C851        H856   1.083       .  S
C852        H857   1.083       .  S
C853        C854   1.406       .  A
C854        H858   1.083       .  S
C859        C860   1.407       .  A
C859        C864   1.401       .  A
C859        H865   1.083       .  S
C861        C862   1.394       .  A
C861        H866   1.083       .  S
C862        C863   1.406       .  A
C862        H867   1.083       .  S
C864        H868   1.083       .  S
C869        C874   1.401       .  A
C869        H875   1.083       .  S
C870        C871   1.406       .  A
C871        C872   1.394       .  A
C871        H876   1.083       .  S
C872        C873   1.406       .  A
C872        H877   1.083       .  S
C874        H878   1.083       .  S
C879       C2104   1.406       .  A
C879        C884   1.395       .  A
C879        H885   1.083       .  S
C880       C2103   1.406       .  A
C880        C881   1.407       .  A
C881        C882   1.401       .  A
C881        H886   1.083       .  S
C882       C2107   1.407       .  A
C882        H887   1.083       .  S
C883       C2106   1.407   1_455  A
C883        C884   1.406       .  A
C884        H888   1.083       .  S
C889        C890   1.407   1_455  A
C889        C894   1.400       .  A
C889        H895   1.083       .  S
C890       C2115   1.406       .  A
C891       C2114   1.406       .  A
C891        C892   1.395       .  A
C891        H896   1.083       .  S
C892       C2117   1.406       .  A
C892        H897   1.083       .  S
C893       C2116   1.406       .  A
C893        C894   1.407   1_655  A
C894        H898   1.083       .  S
C899        C900   1.406   1_455  A
C899        C904   1.400       .  A
C899        H905   1.083       .  S
C900       C2125   1.404       .  A
C901       C2124   1.404       .  A
C901        C902   1.395       .  A
C901        H906   1.083       .  S
C902        C903   1.404       .  A
C902        H907   1.083       .  S
C903       C2128   1.406       .  A
C904       C2127   1.406   1_455  A
C904        H908   1.083       .  S
C909       C2134   1.407   1_455  A
C909        C914   1.400       .  A
C909        H915   1.083       .  S
C910       C2133   1.407       .  A
C910        C911   1.406       .  A
C911        C912   1.395       .  A
C911        H916   1.083       .  S
C912        C913   1.406       .  A
C912        H917   1.083       .  S
C913       C2138   1.407       .  A
C914       C2137   1.407   1_455  A
C914        H918   1.083       .  S
O919       Zr931   2.438       .  S
O919        C921   1.288       .  A
O920      Zr2181   2.427       .  S
O920        C921   1.287       .  A
C921       C1179   1.484       .  S
O922       Zr934   2.440       .  S
O922        C924   1.289       .  A
O923        C924   1.287       .  A
C924       C1186   1.483       .  S
O925       Zr934   2.439       .  S
O925        C927   1.289       .  A
O926       Zr957   2.426       .  S
O926       C2151   1.287   1_455  A
C927       O2150   1.287       .  A
C927       C1216   1.484       .  S
O928       Zr931   2.437       .  S
O928        C930   1.288       .  A
O929       Zr958   2.426       .  S
C930       C1146   1.484       .  S
Zr931       O932   2.434       .  S
Zr931       O937   2.369       .  S
Zr931       O938   2.369       .  S
O932        H975   0.990       .  S
O933        H974   0.990       .  S
O933        H978   0.990       .  S
Zr934       O935   2.436       .  S
Zr934      O2160   2.435       .  S
Zr934       O938   2.370       .  S
Zr934       O937   2.369       .  S
Zr934      O2186   2.371       .  S
Zr934      O2188   2.371       .  S
O935        H976   0.990       .  S
O935        H979   0.990       .  S
O936      Zr2158   2.435       .  S
O936        H969   0.990       .  S
O937      Zr2181   2.382       .  S
O938        H965   0.966       .  S
O939       Zr951   2.441       .  S
O939        C941   1.289       .  A
O940       Zr958   2.425       .  S
O940       C2165   1.287       .  A
C941       O2164   1.287       .  A
C941       C1196   1.483       .  S
O942       Zr954   2.437       .  S
O942        C944   1.288       .  A
O943       Zr957   2.426       .  S
C944       C1166   1.484       .  S
O945       Zr954   2.437       .  S
O945        C947   1.288       .  A
O946      Zr2182   2.427       .  S
O946        C947   1.287       .  A
C947       C1159   1.485       .  S
O948       Zr951   2.440       .  S
O948        C950   1.289   1_655  A
O949        C950   1.287       .  A
C950       C1206   1.478   1_455  S
Zr951       O952   2.435   1_655  S
Zr951      O2177   2.434       .  S
Zr951       O959   2.371   1_655  S
Zr951       O960   2.372   1_655  S
Zr951      O2187   2.369       .  S
Zr951      O2185   2.370       .  S
O952        H972   0.990       .  S
O952        H977   0.990       .  S
O953      Zr2175   2.434       .  S
O953        H973   0.990       .  S
Zr954       O955   2.434       .  S
Zr954       O960   2.371       .  S
Zr954       O959   2.370       .  S
O955        H971   0.990       .  S
O956        H970   0.990       .  S
O956        H980   0.990       .  S
Zr957      O2144   2.427   1_455  S
Zr957      O2161   2.382   1_455  S
Zr957       O962   2.384       .  S
Zr957      O1575   2.386   1_455  S
Zr958      O2170   2.427       .  S
Zr958      O2183   2.385       .  S
Zr958       O961   2.382       .  S
Zr958      O1576   2.382   1_565  S
O959      Zr2182   2.385       .  S
O959        H967   0.966       .  S
O961      Zr2175   2.370       .  S
O962      Zr2158   2.371       .  S
O962        H966   0.966       .  S
O963      Zr2175   2.369       .  S
O963      Zr1569   2.386       .  S
O963        H968   0.966       .  S
O964      Zr2158   2.371       .  S
O964      Zr1570   2.382       .  S
O981       Zr993   2.441       .  S
O981        C983   1.289       .  A
O982      Zr1019   2.425   1_655  S
O982       C2207   1.287       .  A
C983       O2206   1.287       .  A
C983       C1219   1.484       .  S
O984       Zr996   2.437       .  S
O984        C986   1.288       .  A
O985      Zr1020   2.428       .  S
O985        C986   1.287       .  A
C986       C1109   1.484       .  S
O987       Zr996   2.437       .  S
O987        C989   1.288       .  A
O988      Zr2243   2.426       .  S
O988        C989   1.287       .  A
C989       C1116   1.484       .  S
O990       Zr993   2.439       .  S
O990        C992   1.289       .  A
O991      Zr1020   2.426       .  S
O991        C992   1.287       .  A
C992       C1209   1.478       .  S
Zr993       O994   2.434       .  S
Zr993      O2219   2.435       .  S
Zr993       O999   2.370       .  S
Zr993      O1000   2.369       .  S
Zr993      O2247   2.372       .  S
Zr993      O2249   2.370       .  S
O994       H1037   0.990       .  S
O995      Zr2217   2.435   1_455  S
O995       H1036   0.990       .  S
O995       H1040   0.990       .  S
Zr996       O997   2.435       .  S
Zr996      O1000   2.369       .  S
Zr996       O999   2.369       .  S
O997       H1038   0.990       .  S
O997       H1041   0.990       .  S
O998       H1031   0.990       .  S
O999      Zr2243   2.382       .  S
O1000     Zr1020   2.386       .  S
O1000      H1027   0.966       .  S
O1001     Zr1013   2.439       .  S
O1002     Zr2244   2.425       .  S
C1003      C1126   1.485       .  S
O1004     Zr1016   2.439       .  S
O1004      C1006   1.289       .  A
O1005      C1006   1.287       .  A
C1006      C1189   1.484       .  S
O1007     Zr1016   2.440   1_655  S
O1007      C1009   1.289       .  A
O1008      C2233   1.287       .  A
C1009      O2232   1.287   1_655  A
C1009      C1199   1.483       .  S
O1010     Zr1013   2.437       .  S
O1011     Zr1019   2.427       .  S
C1012      C1136   1.483       .  S
Zr1013     O1015   2.434       .  S
Zr1013     O1025   2.370       .  S
Zr1013     O1023   2.370       .  S
O1014      H1034   0.990       .  S
O1014      H1039   0.990       .  S
O1015      H1035   0.990       .  S
Zr1016     O1017   2.434       .  S
Zr1016     O2242   2.434   1_455  S
Zr1016     O1022   2.371       .  S
Zr1016     O1021   2.370       .  S
Zr1016     O2250   2.370   1_455  S
Zr1016     O2248   2.369   1_455  S
O1017      H1033   0.990       .  S
O1018     Zr2240   2.434       .  S
O1018      H1032   0.990       .  S
O1018      H1042   0.990       .  S
Zr1019     O2212   2.426   1_455  S
Zr1019     O2223   2.382   1_455  S
Zr1019     O1942   2.385   1_455  S
Zr1019     O1025   2.385       .  S
Zr1020     O2226   2.425       .  S
Zr1020     O1939   2.385       .  S
Zr1020     O2247   2.382       .  S
O1021     Zr1938   2.385   1_556  S
O1021      H1029   0.966       .  S
O1023     Zr2217   2.372   1_455  S
O1023     Zr2244   2.382       .  S
O1024     Zr2240   2.369       .  S
O1024     Zr1937   2.385   1_556  S
O1024      H1028   0.966       .  S
O1025     Zr2217   2.370   1_455  S
O1025      H1030   0.966       .  S
O1026     Zr2240   2.370       .  S
O1043     Zr1055   2.439       .  S
O1043      C1045   1.289       .  A
O1044      C1045   1.287       .  A
C1045      C1119   1.484       .  S
O1046     Zr1058   2.438       .  S
O1047     Zr1082   2.425       .  S
O1047      C1048   1.287       .  A
C1048      C1169   1.484       .  S
O1049     Zr1058   2.439   1_545  S
O1050     Zr1081   2.425   1_545  S
C1051      C1176   1.484       .  S
O1052     Zr1055   2.438       .  S
O1052      C1054   1.289       .  A
O1053     Zr1082   2.426       .  S
O1053      C1054   1.287       .  A
C1054      C1139   1.483       .  S
Zr1055     O1056   2.434       .  S
Zr1055     O1061   2.370       .  S
Zr1055     O1062   2.369       .  S
O1056      H1099   0.990       .  S
O1057      H1098   0.990       .  S
O1057      H1102   0.990       .  S
Zr1058     O1060   2.435       .  S
Zr1058     O1086   2.370       .  S
Zr1058     O1088   2.371       .  S
O1059      H1100   0.990       .  S
O1059      H1103   0.990       .  S
O1060      H1093   0.990       .  S
O1062     Zr1082   2.386       .  S
O1062      H1089   0.966       .  S
O1063     Zr1075   2.439       .  S
C1065      C1156   1.484   1_545  S
O1066     Zr1078   2.438       .  S
O1067     Zr1081   2.426       .  S
C1068      C1106   1.485       .  S
O1069     Zr1078   2.439       .  S
C1071      C1129   1.485       .  S
O1072     Zr1075   2.437       .  S
O1073      C1074   1.287       .  A
C1074      C1149   1.484       .  S
Zr1075     O1077   2.434       .  S
Zr1075     O1087   2.369       .  S
Zr1075     O1085   2.370       .  S
O1076      H1096   0.990       .  S
O1076      H1101   0.990       .  S
O1077      H1097   0.990       .  S
Zr1078     O1080   2.434       .  S
Zr1078     O1088   2.370       .  S
Zr1078     O1086   2.368       .  S
O1079      H1095   0.990       .  S
O1080      H1094   0.990       .  S
O1080      H1104   0.990       .  S
Zr1081     O1086   2.385       .  S
O1083      H1091   0.966       .  S
O1086      H1090   0.966       .  S
O1087      H1092   0.966       .  S
C1105      C1106   1.408       .  A
C1105      C1110   1.402       .  A
C1105      H1111   1.083       .  S
C1107      C1108   1.394       .  A
C1107      H1112   1.083       .  S
C1108      C1109   1.406       .  A
C1108      H1113   1.083       .  S
C1110      H1114   1.083       .  S
C1115      C1116   1.406       .  A
C1115      C1120   1.394       .  A
C1115      H1121   1.083       .  S
C1116      C1117   1.407       .  A
C1117      C1118   1.400       .  A
C1117      H1122   1.083       .  S
C1118      C1119   1.407       .  A
C1118      H1123   1.083       .  S
C1119      C1120   1.406       .  A
C1120      H1124   1.083       .  S
C1125      C1126   1.407       .  A
C1125      C1130   1.400       .  A
C1125      H1131   1.083       .  S
C1126      C1127   1.406       .  A
C1127      C1128   1.395       .  A
C1127      H1132   1.083       .  S
C1128      C1129   1.406       .  A
C1128      H1133   1.083       .  S
C1129      C1130   1.407       .  A
C1130      H1134   1.083       .  S
C1135      C1136   1.407   1_556  A
C1135      C1140   1.401       .  A
C1135      H1141   1.083       .  S
C1137      C1138   1.394       .  A
C1137      H1142   1.083       .  S
C1138      C1139   1.405       .  A
C1138      H1143   1.083       .  S
C1140      H1144   1.083       .  S
C1145      C1146   1.407       .  A
C1145      H1151   1.083       .  S
C1146      C1147   1.406       .  A
C1147      H1152   1.083       .  S
C1148      C1149   1.406       .  A
C1148      H1153   1.083       .  S
C1149      C1150   1.407       .  A
C1150      H1154   1.083       .  S
C1155      C1156   1.406       .  A
C1155      C1160   1.394       .  A
C1155      H1161   1.083       .  S
C1157      C1158   1.401       .  A
C1157      H1162   1.083       .  S
C1158      H1163   1.083       .  S
C1159      C1160   1.406       .  A
C1160      H1164   1.083       .  S
C1165      C1166   1.407       .  A
C1165      C1170   1.401       .  A
C1165      H1171   1.083       .  S
C1167      C1168   1.394       .  A
C1167      H1172   1.083       .  S
C1168      C1169   1.406       .  A
C1168      H1173   1.083       .  S
C1170      H1174   1.083       .  S
C1175      C1180   1.401       .  A
C1175      H1181   1.083       .  S
C1176      C1177   1.406       .  A
C1177      C1178   1.394       .  A
C1177      H1182   1.083       .  S
C1178      C1179   1.406       .  A
C1178      H1183   1.083       .  S
C1180      H1184   1.083       .  S
C1185      C2410   1.406       .  A
C1185      C1190   1.395       .  A
C1185      H1191   1.083       .  S
C1186      C2409   1.406       .  A
C1186      C1187   1.407       .  A
C1187      C1188   1.401       .  A
C1187      H1192   1.083       .  S
C1188      C2413   1.407       .  A
C1188      H1193   1.083       .  S
C1189      C2412   1.407   1_455  A
C1189      C1190   1.406       .  A
C1190      H1194   1.083       .  S
C1195      C1196   1.407   1_455  A
C1195      C1200   1.400       .  A
C1195      H1201   1.083       .  S
C1196      C2421   1.406       .  A
C1197      C2420   1.406       .  A
C1197      C1198   1.395       .  A
C1197      H1202   1.083       .  S
C1198      C2423   1.406       .  A
C1198      H1203   1.083       .  S
C1199      C2422   1.406       .  A
C1199      C1200   1.407   1_655  A
C1200      H1204   1.083       .  S
C1205      C1206   1.406   1_455  A
C1205      C1210   1.401       .  A
C1205      H1211   1.083       .  S
C1206      C2431   1.404       .  A
C1207      C2430   1.404       .  A
C1207      C1208   1.395       .  A
C1207      H1212   1.083       .  S
C1208      C1209   1.404       .  A
C1208      H1213   1.083       .  S
C1209      C2434   1.406       .  A
C1210      C2433   1.406   1_455  A
C1210      H1214   1.083       .  S
C1215      C2440   1.407   1_455  A
C1215      C1220   1.400       .  A
C1215      H1221   1.083       .  S
C1216      C2439   1.407       .  A
C1216      C1217   1.406       .  A
C1217      C1218   1.395       .  A
C1217      H1222   1.083       .  S
C1218      C1219   1.406       .  A
C1218      H1223   1.083       .  S
C1219      C2444   1.407       .  A
C1220      C2443   1.407   1_455  A
C1220      H1224   1.083       .  S
O1225     Zr1237   2.438       .  S
O1225      C1227   1.288       .  A
O1226      C1227   1.287       .  A
C1227      C1485   1.484       .  S
O1228     Zr1240   2.440       .  S
O1228      C1230   1.289       .  A
O1229     Zr1876   2.426   1_545  S
O1229      C1230   1.287       .  A
C1230      C1492   1.483       .  S
O1231     Zr1240   2.439   1_655  S
O1231      C1233   1.289       .  A
O1232     Zr1263   2.426   1_545  S
C1233      C1522   1.484       .  S
O1234     Zr1237   2.437   1_565  S
O1234      C1236   1.288       .  A
O1235     Zr1264   2.426   1_655  S
O1235      C1848   1.287       .  A
C1236      O1847   1.287       .  A
C1236      C1452   1.485       .  S
Zr1237     O1238   2.434       .  S
Zr1237     O1851   2.435   1_545  S
Zr1237     O1243   2.369       .  S
Zr1237     O1244   2.369       .  S
Zr1237     O1879   2.369   1_545  S
Zr1237     O1881   2.370   1_545  S
O1238      H1281   0.990       .  S
O1239     Zr1849   2.435       .  S
O1239      H1280   0.990       .  S
O1239      H1284   0.990       .  S
Zr1240     O1241   2.436   1_455  S
Zr1240     O1244   2.370   1_455  S
Zr1240     O1243   2.369   1_455  S
O1241      H1282   0.990       .  S
O1241      H1285   0.990       .  S
O1242      H1275   0.990       .  S
O1244     Zr1876   2.385   1_645  S
O1244      H1271   0.966       .  S
O1245     Zr1257   2.441       .  S
O1245      C1247   1.289       .  A
O1246     Zr1264   2.425       .  S
C1247      C1502   1.483       .  S
O1248     Zr1260   2.437       .  S
O1248      C1250   1.288       .  A
O1249     Zr1263   2.426       .  S
O1249      C1862   1.287       .  A
C1250      O1861   1.287       .  A
C1250      C1472   1.484       .  S
O1251     Zr1260   2.437       .  S
O1251      C1253   1.288       .  A
O1252      C1253   1.287       .  A
C1253      C1465   1.484       .  S
O1254     Zr1257   2.440       .  S
O1254      C1256   1.289       .  A
O1255     Zr1875   2.425       .  S
O1255      C1256   1.287       .  A
C1256      C1512   1.478       .  S
Zr1257     O1258   2.435       .  S
Zr1257     O1265   2.371       .  S
Zr1257     O1266   2.372       .  S
O1258      H1278   0.990       .  S
O1258      H1283   0.990       .  S
O1259      H1279   0.990       .  S
Zr1260     O1261   2.434       .  S
Zr1260     O1874   2.434       .  S
Zr1260     O1266   2.370       .  S
Zr1260     O1265   2.370       .  S
Zr1260     O1882   2.369       .  S
Zr1260     O1880   2.369       .  S
O1261      H1277   0.990       .  S
O1262     Zr1872   2.434   1_545  S
O1262      H1276   0.990       .  S
O1262      H1286   0.990       .  S
Zr1263     O1867   2.425       .  S
Zr1263     O1878   2.381       .  S
Zr1263     O1268   2.384   1_565  S
Zr1264     O1841   2.426       .  S
Zr1264     O1856   2.385   1_455  S
Zr1264     O1267   2.382   1_455  S
O1265      H1273   0.966       .  S
O1266     Zr1875   2.381       .  S
O1267     Zr1849   2.369       .  S
O1268     Zr1872   2.369   1_545  S
O1268      H1272   0.966       .  S
O1269     Zr1849   2.370       .  S
O1269      H1274   0.966       .  S
O1270     Zr1872   2.369   1_545  S
O1287     Zr1299   2.441       .  S
O1287      C1289   1.289       .  A
O1288     Zr1325   2.425       .  S
C1289      C1525   1.484       .  S
O1290     Zr1302   2.437   1_556  S
O1290      C1292   1.288       .  A
O1291     Zr1326   2.428   1_655  S
O1291      C1292   1.287   1_554  A
C1292      C1415   1.485       .  S
O1293     Zr1302   2.437       .  S
O1293      C1295   1.288       .  A
O1294      C1295   1.287       .  A
C1295      C1422   1.484       .  S
O1296     Zr1299   2.439       .  S
O1296      C1298   1.289   1_655  A
O1297     Zr1326   2.425       .  S
O1297      C1298   1.287       .  A
C1298      C1515   1.478   1_455  S
Zr1299     O1300   2.434       .  S
Zr1299     O1305   2.370       .  S
Zr1299     O1306   2.369       .  S
O1300      H1343   0.990       .  S
O1301      H1342   0.990       .  S
O1301      H1346   0.990       .  S
Zr1302     O1303   2.435       .  S
Zr1302     O1610   2.435   1_554  S
Zr1302     O1306   2.369       .  S
Zr1302     O1305   2.369       .  S
Zr1302     O1636   2.371   1_554  S
Zr1302     O1638   2.370   1_554  S
O1303      H1344   0.990       .  S
O1303      H1347   0.990       .  S
O1304     Zr1608   2.435       .  S
O1304      H1337   0.990       .  S
O1306     Zr1326   2.386   1_655  S
O1306      H1333   0.966       .  S
O1307     Zr1319   2.439       .  S
O1307      C1615   1.288       .  A
O1308      C1615   1.287       .  A
C1309      O1613   1.288       .  A
C1309      O1614   1.287       .  A
C1309      C1432   1.485       .  S
O1310     Zr1322   2.439       .  S
O1310      C1312   1.289       .  A
O1311     Zr1631   2.426       .  S
O1311      C1312   1.287       .  A
C1312      C1495   1.484       .  S
O1313     Zr1322   2.440       .  S
O1313      C1315   1.289       .  A
O1314     Zr1632   2.426       .  S
C1315      C1505   1.483       .  S
O1316     Zr1319   2.436       .  S
O1316      C1624   1.288       .  A
O1317     Zr1325   2.427       .  S
O1317      C1624   1.287       .  A
C1318      O1622   1.288       .  A
C1318      O1623   1.287       .  A
C1318      C1442   1.483       .  S
Zr1319     O1626   2.435   1_554  S
Zr1319     O1321   2.434       .  S
Zr1319     O1633   2.370   1_554  S
Zr1319     O1634   2.370   1_554  S
Zr1319     O1331   2.370       .  S
Zr1319     O1329   2.370       .  S
O1320     Zr1625   2.435       .  S
O1320      H1340   0.990       .  S
O1320      H1345   0.990       .  S
O1321      H1341   0.990       .  S
Zr1322     O1323   2.434       .  S
Zr1322     O1328   2.371       .  S
Zr1322     O1327   2.370       .  S
O1323      H1339   0.990       .  S
O1324      H1338   0.990       .  S
O1324      H1348   0.990       .  S
Zr1325     O1617   2.426   1_554  S
Zr1325     O1634   2.381   1_554  S
Zr1325     O1331   2.385       .  S
Zr1326     O1620   2.426   1_554  S
Zr1326     O1638   2.382   1_454  S
O1327     Zr1625   2.370       .  S
O1327      H1335   0.966       .  S
O1328     Zr1625   2.370       .  S
O1328     Zr1631   2.381       .  S
O1330     Zr1608   2.370       .  S
O1330      H1334   0.966       .  S
O1331      H1336   0.966       .  S
O1332     Zr1608   2.370       .  S
O1332     Zr1632   2.382   1_655  S
O1349     Zr1361   2.439       .  S
O1349      C1351   1.288       .  A
O1350     Zr1999   2.425   1_545  S
O1350      C1351   1.287       .  A
C1351      C1425   1.484       .  S
O1352     Zr1364   2.438       .  S
O1352      C1966   1.288       .  A
O1353     Zr1388   2.425       .  S
O1353      C1354   1.287       .  A
C1354      O1964   1.288       .  A
C1354      C1475   1.484       .  S
O1355     Zr1364   2.438       .  S
O1355      C1969   1.289       .  A
O1356     Zr1387   2.425       .  S
O1356      C1969   1.287       .  A
C1357      O1967   1.289       .  A
C1357      O1968   1.287       .  A
C1357      C1482   1.484       .  S
O1358     Zr1361   2.438       .  S
O1358      C1360   1.289       .  A
O1359     Zr1388   2.426   1_545  S
O1359      C1360   1.287       .  A
C1360      C1445   1.483       .  S
Zr1361     O1362   2.434       .  S
Zr1361     O1669   2.435   1_554  S
Zr1361     O1367   2.370       .  S
Zr1361     O1368   2.369       .  S
Zr1361     O1697   2.370   1_554  S
Zr1361     O1699   2.370   1_554  S
O1362      H1405   0.990       .  S
O1363     Zr1667   2.435       .  S
O1363      H1404   0.990       .  S
O1363      H1408   0.990       .  S
Zr1364     O1977   2.435       .  S
Zr1364     O1366   2.435       .  S
Zr1364     O1980   2.369       .  S
Zr1364     O1979   2.370       .  S
Zr1364     O1392   2.370       .  S
Zr1364     O1394   2.371       .  S
O1365     Zr1976   2.435   1_545  S
O1365      H1406   0.990       .  S
O1365      H1409   0.990       .  S
O1366      H1399   0.990       .  S
O1367     Zr1976   2.370   1_545  S
O1367     Zr1999   2.382   1_545  S
O1368     Zr1976   2.369   1_545  S
O1368     Zr1388   2.386   1_545  S
O1368      H1395   0.966       .  S
O1369     Zr1381   2.439   1_545  S
O1369      C1983   1.288       .  A
O1370     Zr1694   2.426       .  S
O1370      C1983   1.287   1_565  A
C1371      O1981   1.288       .  A
C1371      O1982   1.287       .  A
C1371      C1462   1.484       .  S
O1372     Zr1384   2.438   1_556  S
O1372      C1680   1.289       .  A
O1373     Zr1387   2.426       .  S
O1373      C1680   1.287   1_554  A
C1374      O1678   1.289       .  A
C1374      O1679   1.287       .  A
C1374      C1412   1.484       .  S
O1375     Zr1384   2.439       .  S
O1375      C1683   1.288       .  A
O1376     Zr2000   2.425       .  S
O1376      C1683   1.287       .  A
C1377      O1681   1.288       .  A
C1377      O1682   1.287       .  A
C1377      C1435   1.485       .  S
O1378     Zr1381   2.438       .  S
O1378      C1992   1.288       .  A
O1379     Zr1693   2.426       .  S
O1379      C1380   1.287       .  A
C1380      O1990   1.288       .  A
C1380      C1455   1.485       .  S
Zr1381     O1994   2.435       .  S
Zr1381     O1383   2.434   1_565  S
Zr1381     O2001   2.370       .  S
Zr1381     O2002   2.370       .  S
Zr1381     O1393   2.369   1_565  S
Zr1381     O1391   2.370   1_565  S
O1382     Zr1993   2.435       .  S
O1382      H1402   0.990       .  S
O1382      H1407   0.990       .  S
O1383      H1403   0.990       .  S
Zr1384     O1691   2.434   1_554  S
Zr1384     O1386   2.434       .  S
Zr1384     O1696   2.370   1_554  S
Zr1384     O1695   2.369   1_554  S
Zr1384     O1394   2.370       .  S
Zr1384     O1392   2.368       .  S
O1385     Zr1690   2.434       .  S
O1385      H1401   0.990       .  S
O1386      H1400   0.990       .  S
O1386      H1410   0.990       .  S
Zr1387     O1962   2.425       .  S
Zr1387     O1685   2.426   1_554  S
Zr1387     O1979   2.382       .  S
Zr1387     O1696   2.381   1_554  S
Zr1387     O1392   2.385       .  S
Zr1387     O2311   2.385   1_554  S
Zr1388     O1676   2.426   1_554  S
Zr1388     O1988   2.425       .  S
Zr1388     O2307   2.385   1_554  S
Zr1388     O1697   2.382   1_564  S
Zr1388     O2006   2.382       .  S
O1389     Zr1993   2.370       .  S
O1389     Zr1690   2.369       .  S
O1389     Zr2306   2.385       .  S
O1389      H1397   0.966       .  S
O1390     Zr1993   2.370       .  S
O1390     Zr1690   2.370       .  S
O1390     Zr1693   2.381       .  S
O1391     Zr1667   2.370       .  S
O1391     Zr1694   2.382   1_545  S
O1392      H1396   0.966       .  S
O1393     Zr1667   2.370       .  S
O1393     Zr2305   2.385   1_545  S
O1393      H1398   0.966       .  S
O1394     Zr2000   2.382       .  S
C1411      C1412   1.408       .  A
C1411      C1416   1.401       .  A
C1411      H1417   1.083       .  S
C1412      C1719   1.406       .  A
C1413      C1718   1.406   1_554  A
C1413      C1414   1.394       .  A
C1413      H1418   1.083       .  S
C1414      C1415   1.406   1_554  A
C1414      H1419   1.083       .  S
C1415      C1722   1.407       .  A
C1416      C1721   1.407       .  A
C1416      H1420   1.083       .  S
C1421      C1422   1.406       .  A
C1421      C1426   1.395       .  A
C1421      H1427   1.083       .  S
C1422      C1423   1.407       .  A
C1423      C1424   1.400       .  A
C1423      H1428   1.083       .  S
C1424      C1425   1.407       .  A
C1424      H1429   1.083       .  S
C1425      C1426   1.406       .  A
C1426      H1430   1.083       .  S
C1431      C1432   1.407       .  A
C1431      C1436   1.400       .  A
C1431      H1437   1.083       .  S
C1432      C1433   1.406       .  A
C1433      C1434   1.395       .  A
C1433      H1438   1.083       .  S
C1434      C1435   1.406       .  A
C1434      H1439   1.083       .  S
C1435      C1436   1.407       .  A
C1436      H1440   1.083       .  S
C1441      C1442   1.407       .  A
C1441      C1446   1.401       .  A
C1441      H1447   1.083       .  S
C1442      C1749   1.406       .  A
C1443      C1748   1.406       .  A
C1443      C1444   1.394       .  A
C1443      H1448   1.083       .  S
C1444      C1445   1.405       .  A
C1444      H1449   1.083       .  S
C1445      C1752   1.407   1_554  A
C1446      C1751   1.407       .  A
C1446      H1450   1.083       .  S
C1451      C1452   1.407       .  A
C1451      C2068   1.401       .  A
C1451      H1457   1.083       .  S
C1452      C1453   1.406       .  A
C1453      C2066   1.394       .  A
C1453      H1458   1.083       .  S
C1454      C2065   1.394       .  A
C1454      C1455   1.406       .  A
C1454      H1459   1.083       .  S
C1455      C1456   1.407       .  A
C1456      C2063   1.401       .  A
C1456      H1460   1.083       .  S
C1461      C1462   1.406       .  A
C1461      C1466   1.394       .  A
C1461      H1467   1.083       .  S
C1462      C2075   1.407       .  A
C1463      C2074   1.407   1_545  A
C1463      C1464   1.401       .  A
C1463      H1468   1.083       .  S
C1464      C2077   1.407   1_545  A
C1464      H1469   1.083       .  S
C1465      C2076   1.407       .  A
C1465      C1466   1.406       .  A
C1466      H1470   1.083       .  S
C1471      C1472   1.407       .  A
C1471      C1476   1.401       .  A
C1471      H1477   1.083       .  S
C1472      C2085   1.406       .  A
C1473      C2084   1.406       .  A
C1473      C1474   1.394       .  A
C1473      H1478   1.083       .  S
C1474      C1475   1.406       .  A
C1474      H1479   1.083       .  S
C1475      C2088   1.407       .  A
C1476      C2087   1.407       .  A
C1476      H1480   1.083       .  S
C1481      C2094   1.407       .  A
C1481      C1486   1.401       .  A
C1481      H1487   1.083       .  S
C1482      C2093   1.407   1_545  A
C1482      C1483   1.406       .  A
C1483      C1484   1.394       .  A
C1483      H1488   1.083       .  S
C1484      C1485   1.406       .  A
C1484      H1489   1.083       .  S
C1485      C2098   1.407   1_545  A
C1486      C2097   1.407       .  A
C1486      H1490   1.083       .  S
C1491      C1496   1.395       .  A
C1491      H1497   1.083       .  S
C1492      C1493   1.407   1_455  A
C1493      C1494   1.401       .  A
C1493      H1498   1.083       .  S
C1494      H1499   1.083       .  S
C1495      C1496   1.406       .  A
C1496      H1500   1.083       .  S
C1501      C1502   1.407       .  A
C1501      C1506   1.400       .  A
C1501      H1507   1.083       .  S
C1503      C1504   1.395       .  A
C1503      H1508   1.083       .  S
C1504      H1509   1.083       .  S
C1505      C1506   1.407       .  A
C1506      H1510   1.083       .  S
C1511      C1512   1.406       .  A
C1511      C1516   1.400       .  A
C1511      H1517   1.083       .  S
C1513      C1514   1.395       .  A
C1513      H1518   1.083       .  S
C1514      C1515   1.404       .  A
C1514      H1519   1.083       .  S
C1516      H1520   1.083       .  S
C1521      C1526   1.400       .  A
C1521      H1527   1.083       .  S
C1522      C1523   1.406       .  A
C1523      C1524   1.395       .  A
C1523      H1528   1.083       .  S
C1524      C1525   1.406       .  A
C1524      H1529   1.083       .  S
C1526      H1530   1.083       .  S
O1531     Zr1543   2.438       .  S
O1531      C1533   1.288       .  A
O1532      C1533   1.287       .  A
C1533      C1791   1.484       .  S
O1534     Zr1546   2.440       .  S
O1534      C1536   1.289       .  A
O1535     Zr2182   2.426   1_545  S
O1535      C1536   1.287       .  A
C1536      C1798   1.483       .  S
O1537     Zr1546   2.439   1_655  S
O1537      C1539   1.289       .  A
O1538     Zr1569   2.426   1_545  S
C1539      C1828   1.484       .  S
O1540     Zr1543   2.437   1_565  S
O1540      C1542   1.288       .  A
O1541     Zr1570   2.426   1_655  S
O1541      C2154   1.287       .  A
C1542      O2153   1.287       .  A
C1542      C1758   1.484       .  S
Zr1543     O1544   2.434       .  S
Zr1543     O2157   2.435   1_545  S
Zr1543     O1549   2.369       .  S
Zr1543     O1550   2.369       .  S
Zr1543     O2185   2.369   1_545  S
Zr1543     O2187   2.370   1_545  S
O1544      H1587   0.990       .  S
O1545     Zr2155   2.435       .  S
O1545      H1586   0.990       .  S
O1545      H1590   0.990       .  S
Zr1546     O1547   2.436   1_455  S
Zr1546     O1550   2.370   1_455  S
Zr1546     O1549   2.369   1_455  S
O1547      H1588   0.990       .  S
O1547      H1591   0.990       .  S
O1548      H1581   0.990       .  S
O1550     Zr2182   2.385   1_645  S
O1550      H1577   0.966       .  S
O1551     Zr1563   2.441       .  S
O1551      C1553   1.289       .  A
O1552     Zr1570   2.425       .  S
C1553      C1808   1.483       .  S
O1554     Zr1566   2.437       .  S
O1554      C1556   1.288       .  A
O1555     Zr1569   2.426       .  S
O1555      C2168   1.287       .  A
C1556      O2167   1.287       .  A
C1556      C1778   1.484       .  S
O1557     Zr1566   2.437       .  S
O1557      C1559   1.288       .  A
O1558      C1559   1.287       .  A
C1559      C1771   1.485       .  S
O1560     Zr1563   2.440       .  S
O1560      C1562   1.289       .  A
O1561     Zr2181   2.425       .  S
O1561      C1562   1.287       .  A
C1562      C1818   1.478       .  S
Zr1563     O1564   2.435       .  S
Zr1563     O1571   2.371       .  S
Zr1563     O1572   2.372       .  S
O1564      H1584   0.990       .  S
O1564      H1589   0.990       .  S
O1565      H1585   0.990       .  S
Zr1566     O1567   2.434       .  S
Zr1566     O2180   2.434       .  S
Zr1566     O1572   2.371       .  S
Zr1566     O1571   2.370       .  S
Zr1566     O2188   2.370       .  S
Zr1566     O2186   2.369       .  S
O1567      H1583   0.990       .  S
O1568     Zr2178   2.434   1_545  S
O1568      H1582   0.990       .  S
O1568      H1592   0.990       .  S
Zr1569     O2173   2.425       .  S
Zr1569     O2184   2.381       .  S
Zr1569     O1574   2.384   1_565  S
Zr1570     O2147   2.426       .  S
Zr1570     O2162   2.385   1_455  S
Zr1570     O1573   2.382   1_455  S
O1571      H1579   0.966       .  S
O1572     Zr2181   2.381       .  S
O1573     Zr2155   2.369       .  S
O1574     Zr2178   2.369   1_545  S
O1574      H1578   0.966       .  S
O1575     Zr2155   2.370       .  S
O1575      H1580   0.966       .  S
O1576     Zr2178   2.370   1_545  S
O1593     Zr1605   2.441       .  S
O1593      C1595   1.289       .  A
O1594     Zr1631   2.425       .  S
C1595      C1831   1.484       .  S
O1596     Zr1608   2.437       .  S
O1596      C1598   1.288       .  A
O1597     Zr1632   2.428   1_655  S
O1597      C1598   1.287       .  A
C1598      C1721   1.484       .  S
O1599     Zr1608   2.437       .  S
O1599      C1601   1.288       .  A
O1600      C1601   1.287       .  A
C1601      C1728   1.484       .  S
O1602     Zr1605   2.439       .  S
O1602      C1604   1.289   1_655  A
O1603     Zr1632   2.426       .  S
O1603      C1604   1.287       .  A
C1604      C1821   1.478   1_455  S
Zr1605     O1606   2.434       .  S
Zr1605     O1611   2.370       .  S
Zr1605     O1612   2.369       .  S
O1606      H1649   0.990       .  S
O1607      H1648   0.990       .  S
O1607      H1652   0.990       .  S
Zr1608     O1609   2.435       .  S
Zr1608     O1612   2.369       .  S
Zr1608     O1611   2.369       .  S
O1609      H1650   0.990       .  S
O1609      H1653   0.990       .  S
O1610      H1643   0.990       .  S
O1612     Zr1632   2.386   1_655  S
O1612      H1639   0.966       .  S
O1613     Zr1625   2.439       .  S
C1615      C1738   1.485       .  S
O1616     Zr1628   2.439       .  S
O1616      C1618   1.289       .  A
O1617      C1618   1.287       .  A
C1618      C1801   1.484       .  S
O1619     Zr1628   2.440       .  S
O1619      C1621   1.289       .  A
C1621      C1811   1.483       .  S
O1622     Zr1625   2.437       .  S
O1623     Zr1631   2.427       .  S
C1624      C1748   1.483       .  S
Zr1625     O1627   2.434       .  S
Zr1625     O1637   2.370       .  S
Zr1625     O1635   2.370       .  S
O1626      H1646   0.990       .  S
O1626      H1651   0.990       .  S
O1627      H1647   0.990       .  S
Zr1628     O1629   2.434       .  S
Zr1628     O1634   2.371       .  S
Zr1628     O1633   2.370       .  S
O1629      H1645   0.990       .  S
O1630      H1644   0.990       .  S
O1630      H1654   0.990       .  S
Zr1631     O1637   2.385       .  S
O1633      H1641   0.966       .  S
O1636      H1640   0.966       .  S
O1637      H1642   0.966       .  S
O1655     Zr1667   2.439       .  S
O1655      C1657   1.289       .  A
O1656     Zr2305   2.425   1_545  S
O1656      C1657   1.287       .  A
C1657      C1731   1.484       .  S
O1658     Zr1670   2.438       .  S
O1658      C2272   1.288       .  A
O1659     Zr1694   2.425       .  S
O1659      C1660   1.287       .  A
C1660      O2270   1.288       .  A
C1660      C1781   1.484       .  S
O1661     Zr1670   2.439       .  S
O1661      C2275   1.289       .  A
O1662     Zr1693   2.425       .  S
O1662      C2275   1.287       .  A
C1663      O2273   1.289       .  A
C1663      O2274   1.287       .  A
C1663      C1788   1.484       .  S
O1664     Zr1667   2.438       .  S
O1664      C1666   1.289       .  A
O1665     Zr1694   2.426   1_545  S
O1665      C1666   1.287       .  A
C1666      C1751   1.483       .  S
Zr1667     O1668   2.434       .  S
Zr1667     O1673   2.370       .  S
Zr1667     O1674   2.369       .  S
O1668      H1711   0.990       .  S
O1669      H1710   0.990       .  S
O1669      H1714   0.990       .  S
Zr1670     O2283   2.435       .  S
Zr1670     O1672   2.435       .  S
Zr1670     O2286   2.369       .  S
Zr1670     O2285   2.370       .  S
Zr1670     O1698   2.370       .  S
Zr1670     O1700   2.371       .  S
O1671     Zr2282   2.435   1_545  S
O1671      H1712   0.990       .  S
O1671      H1715   0.990       .  S
O1672      H1705   0.990       .  S
O1673     Zr2282   2.370   1_545  S
O1673     Zr2305   2.382   1_545  S
O1674     Zr2282   2.369   1_545  S
O1674     Zr1694   2.386   1_545  S
O1674      H1701   0.966       .  S
O1675     Zr1687   2.439   1_545  S
O1675      C2289   1.288       .  A
O1676      C2289   1.287   1_565  A
C1677      O2287   1.288       .  A
C1677      O2288   1.287       .  A
C1677      C1768   1.484       .  S
O1678     Zr1690   2.438       .  S
O1679     Zr1693   2.426       .  S
C1680      C1718   1.485       .  S
O1681     Zr1690   2.439       .  S
O1682     Zr2306   2.425       .  S
C1683      C1741   1.485       .  S
O1684     Zr1687   2.437       .  S
O1684      C2298   1.288       .  A
O1685      C1686   1.287       .  A
C1686      O2296   1.288       .  A
C1686      C1761   1.484       .  S
Zr1687     O2300   2.435       .  S
Zr1687     O1689   2.434   1_565  S
Zr1687     O2307   2.370       .  S
Zr1687     O2308   2.370       .  S
Zr1687     O1699   2.369   1_565  S
Zr1687     O1697   2.370   1_565  S
O1688     Zr2299   2.435       .  S
O1688      H1708   0.990       .  S
O1688      H1713   0.990       .  S
O1689      H1709   0.990       .  S
Zr1690     O1692   2.434       .  S
Zr1690     O1700   2.370       .  S
Zr1690     O1698   2.368       .  S
O1691      H1707   0.990       .  S
O1692      H1706   0.990       .  S
O1692      H1716   0.990       .  S
Zr1693     O2268   2.425       .  S
Zr1693     O2285   2.382       .  S
Zr1693     O1698   2.385       .  S
Zr1693     O2005   2.385       .  S
Zr1694     O2294   2.425       .  S
Zr1694     O2001   2.385       .  S
Zr1694     O2312   2.382       .  S
O1695     Zr2299   2.370       .  S
O1695     Zr2000   2.385   1_556  S
O1695      H1703   0.966       .  S
O1696     Zr2299   2.370       .  S
O1698      H1702   0.966       .  S
O1699     Zr1999   2.385   1_546  S
O1699      H1704   0.966       .  S
O1700     Zr2306   2.382       .  S
C1717      C1718   1.408       .  A
C1717      C1722   1.402       .  A
C1717      H1723   1.083       .  S
C1719      C1720   1.394       .  A
C1719      H1724   1.083       .  S
C1720      C1721   1.406       .  A
C1720      H1725   1.083       .  S
C1722      H1726   1.083       .  S
C1727      C1728   1.406       .  A
C1727      C1732   1.394       .  A
C1727      H1733   1.083       .  S
C1728      C1729   1.407       .  A
C1729      C1730   1.400       .  A
C1729      H1734   1.083       .  S
C1730      C1731   1.407       .  A
C1730      H1735   1.083       .  S
C1731      C1732   1.406       .  A
C1732      H1736   1.083       .  S
C1737      C1738   1.407       .  A
C1737      C1742   1.400       .  A
C1737      H1743   1.083       .  S
C1738      C1739   1.406       .  A
C1739      C1740   1.395       .  A
C1739      H1744   1.083       .  S
C1740      C1741   1.406       .  A
C1740      H1745   1.083       .  S
C1741      C1742   1.407       .  A
C1742      H1746   1.083       .  S
C1747      C1748   1.407   1_556  A
C1747      C1752   1.401       .  A
C1747      H1753   1.083       .  S
C1749      C1750   1.394       .  A
C1749      H1754   1.083       .  S
C1750      C1751   1.405       .  A
C1750      H1755   1.083       .  S
C1752      H1756   1.083       .  S
C1757      C1758   1.407       .  A
C1757      C2374   1.401       .  A
C1757      H1763   1.083       .  S
C1758      C1759   1.406       .  A
C1759      C2372   1.394       .  A
C1759      H1764   1.083       .  S
C1760      C2371   1.394       .  A
C1760      C1761   1.406       .  A
C1760      H1765   1.083       .  S
C1761      C1762   1.407       .  A
C1762      C2369   1.401       .  A
C1762      H1766   1.083       .  S
C1767      C1768   1.406       .  A
C1767      C1772   1.394       .  A
C1767      H1773   1.083       .  S
C1768      C2381   1.407       .  A
C1769      C2380   1.407   1_545  A
C1769      C1770   1.401       .  A
C1769      H1774   1.083       .  S
C1770      C2383   1.407   1_545  A
C1770      H1775   1.083       .  S
C1771      C2382   1.407       .  A
C1771      C1772   1.406       .  A
C1772      H1776   1.083       .  S
C1777      C1778   1.407       .  A
C1777      C1782   1.401       .  A
C1777      H1783   1.083       .  S
C1778      C2391   1.406       .  A
C1779      C2390   1.406       .  A
C1779      C1780   1.394       .  A
C1779      H1784   1.083       .  S
C1780      C1781   1.406       .  A
C1780      H1785   1.083       .  S
C1781      C2394   1.407       .  A
C1782      C2393   1.407       .  A
C1782      H1786   1.083       .  S
C1787      C2400   1.407       .  A
C1787      C1792   1.401       .  A
C1787      H1793   1.083       .  S
C1788      C2399   1.407   1_545  A
C1788      C1789   1.406       .  A
C1789      C1790   1.394       .  A
C1789      H1794   1.083       .  S
C1790      C1791   1.406       .  A
C1790      H1795   1.083       .  S
C1791      C2404   1.407   1_545  A
C1792      C2403   1.407       .  A
C1792      H1796   1.083       .  S
C1797      C1802   1.395       .  A
C1797      H1803   1.083       .  S
C1798      C1799   1.407   1_455  A
C1799      C1800   1.401       .  A
C1799      H1804   1.083       .  S
C1800      H1805   1.083       .  S
C1801      C1802   1.406       .  A
C1802      H1806   1.083       .  S
C1807      C1808   1.407       .  A
C1807      C1812   1.400       .  A
C1807      H1813   1.083       .  S
C1809      C1810   1.395       .  A
C1809      H1814   1.083       .  S
C1810      H1815   1.083       .  S
C1811      C1812   1.407       .  A
C1812      H1816   1.083       .  S
C1817      C1818   1.406       .  A
C1817      C1822   1.401       .  A
C1817      H1823   1.083       .  S
C1819      C1820   1.395       .  A
C1819      H1824   1.083       .  S
C1820      C1821   1.404       .  A
C1820      H1825   1.083       .  S
C1822      H1826   1.083       .  S
C1827      C1832   1.400       .  A
C1827      H1833   1.083       .  S
C1828      C1829   1.406       .  A
C1829      C1830   1.395       .  A
C1829      H1834   1.083       .  S
C1830      C1831   1.406       .  A
C1830      H1835   1.083       .  S
C1832      H1836   1.083       .  S
O1837     Zr1849   2.438       .  S
O1837      C1839   1.288       .  A
O1838      C1839   1.287       .  A
C1839      C2097   1.484       .  S
O1840     Zr1852   2.440       .  S
O1840      C1842   1.289       .  A
O1841      C1842   1.287       .  A
C1842      C2104   1.483       .  S
O1843     Zr1852   2.439   1_655  S
O1843      C1845   1.289       .  A
O1844     Zr1875   2.426       .  S
C1845      C2134   1.484       .  S
O1846     Zr1849   2.437       .  S
O1846      C1848   1.288       .  A
O1847     Zr1876   2.426   1_655  S
C1848      C2064   1.485       .  S
Zr1849     O1850   2.434       .  S
Zr1849     O1855   2.369       .  S
Zr1849     O1856   2.369       .  S
O1850      H1893   0.990       .  S
O1851      H1892   0.990       .  S
O1851      H1896   0.990       .  S
Zr1852     O1853   2.436   1_455  S
Zr1852     O1856   2.370   1_455  S
Zr1852     O1855   2.369   1_455  S
O1853      H1894   0.990       .  S
O1853      H1897   0.990       .  S
O1854      H1887   0.990       .  S
O1856      H1883   0.966       .  S
O1857     Zr1869   2.441       .  S
O1857      C1859   1.289       .  A
O1858     Zr1876   2.425   1_655  S
C1859      C2114   1.483       .  S
O1860     Zr1872   2.437       .  S
O1860      C1862   1.288       .  A
O1861     Zr1875   2.426       .  S
C1862      C2084   1.484       .  S
O1863     Zr1872   2.437       .  S
O1863      C1865   1.288       .  A
O1864      C1865   1.287       .  A
C1865      C2077   1.484       .  S
O1866     Zr1869   2.440       .  S
O1866      C1868   1.289       .  A
O1867      C1868   1.287       .  A
C1868      C2124   1.478       .  S
Zr1869     O1870   2.435       .  S
Zr1869     O1877   2.371       .  S
Zr1869     O1878   2.372       .  S
O1870      H1890   0.990       .  S
O1870      H1895   0.990       .  S
O1871      H1891   0.990       .  S
Zr1872     O1873   2.434       .  S
Zr1872     O1878   2.370       .  S
Zr1872     O1877   2.370       .  S
O1873      H1889   0.990       .  S
O1874      H1888   0.990       .  S
O1874      H1898   0.990       .  S
Zr1875     O1880   2.384       .  S
Zr1876     O1879   2.382   1_455  S
O1877      H1885   0.966       .  S
O1880      H1884   0.966       .  S
O1881      H1886   0.966       .  S
O1899     Zr1911   2.441       .  S
O1899      C1901   1.289       .  A
O1900     Zr1937   2.425       .  S
C1901      C2137   1.484       .  S
O1902     Zr1914   2.437   1_556  S
O1902      C1904   1.288       .  A
O1903     Zr1938   2.428   1_655  S
O1903      C1904   1.287   1_554  A
C1904      C2027   1.485       .  S
O1905     Zr1914   2.437       .  S
O1905      C1907   1.288       .  A
O1906      C1907   1.287       .  A
C1907      C2034   1.484       .  S
O1908     Zr1911   2.439       .  S
O1908      C1910   1.289   1_655  A
O1909     Zr1938   2.425       .  S
O1909      C1910   1.287       .  A
C1910      C2127   1.478   1_455  S
Zr1911     O1912   2.434       .  S
Zr1911     O1917   2.370       .  S
Zr1911     O1918   2.369       .  S
O1912      H1955   0.990       .  S
O1913      H1954   0.990       .  S
O1913      H1958   0.990       .  S
Zr1914     O1915   2.435       .  S
Zr1914     O2222   2.435   1_554  S
Zr1914     O1918   2.369       .  S
Zr1914     O1917   2.369       .  S
Zr1914     O2248   2.371   1_554  S
Zr1914     O2250   2.370   1_554  S
O1915      H1956   0.990       .  S
O1915      H1959   0.990       .  S
O1916     Zr2220   2.435       .  S
O1916      H1949   0.990       .  S
O1918     Zr1938   2.386   1_655  S
O1918      H1945   0.966       .  S
O1919     Zr1931   2.439       .  S
O1919      C2227   1.288       .  A
O1920      C2227   1.287       .  A
C1921      O2225   1.288       .  A
C1921      O2226   1.287       .  A
C1921      C2044   1.485       .  S
O1922     Zr1934   2.439       .  S
O1922      C1924   1.289       .  A
O1923     Zr2243   2.426       .  S
O1923      C1924   1.287       .  A
C1924      C2107   1.484       .  S
O1925     Zr1934   2.440       .  S
O1925      C1927   1.289       .  A
O1926     Zr2244   2.426       .  S
C1927      C2117   1.483       .  S
O1928     Zr1931   2.436       .  S
O1928      C2236   1.288       .  A
O1929     Zr1937   2.427       .  S
O1929      C2236   1.287       .  A
C1930      O2234   1.288       .  A
C1930      O2235   1.287       .  A
C1930      C2054   1.483       .  S
Zr1931     O2238   2.435   1_554  S
Zr1931     O1933   2.434       .  S
Zr1931     O2245   2.370   1_554  S
Zr1931     O2246   2.370   1_554  S
Zr1931     O1943   2.370       .  S
Zr1931     O1941   2.370       .  S
O1932     Zr2237   2.435       .  S
O1932      H1952   0.990       .  S
O1932      H1957   0.990       .  S
O1933      H1953   0.990       .  S
Zr1934     O1935   2.434       .  S
Zr1934     O1940   2.371       .  S
Zr1934     O1939   2.370       .  S
O1935      H1951   0.990       .  S
O1936      H1950   0.990       .  S
O1936      H1960   0.990       .  S
Zr1937     O2229   2.426   1_554  S
Zr1937     O2246   2.381   1_554  S
Zr1937     O1943   2.385       .  S
Zr1938     O2232   2.426   1_554  S
Zr1938     O2250   2.382   1_454  S
O1939     Zr2237   2.370       .  S
O1939      H1947   0.966       .  S
O1940     Zr2237   2.370       .  S
O1940     Zr2243   2.381       .  S
O1942     Zr2220   2.370       .  S
O1942      H1946   0.966       .  S
O1943      H1948   0.966       .  S
O1944     Zr2220   2.370       .  S
O1944     Zr2244   2.382   1_655  S
O1961     Zr1973   2.439       .  S
O1961      C1963   1.288       .  A
O1962      C1963   1.287       .  A
C1963      C2037   1.484       .  S
O1964     Zr1976   2.438       .  S
O1965     Zr2000   2.425       .  S
O1965      C1966   1.287       .  A
C1966      C2087   1.484       .  S
O1967     Zr1976   2.438   1_545  S
O1968     Zr1999   2.425   1_545  S
C1969      C2094   1.484       .  S
O1970     Zr1973   2.438       .  S
O1970      C1972   1.289       .  A
O1971     Zr2000   2.426       .  S
O1971      C1972   1.287       .  A
C1972      C2057   1.483       .  S
Zr1973     O1974   2.434       .  S
Zr1973     O2281   2.435   1_554  S
Zr1973     O1979   2.370       .  S
Zr1973     O1980   2.369       .  S
Zr1973     O2309   2.370   1_554  S
Zr1973     O2311   2.370   1_554  S
O1974      H2017   0.990       .  S
O1975     Zr2279   2.435       .  S
O1975      H2016   0.990       .  S
O1975      H2020   0.990       .  S
Zr1976     O1978   2.435       .  S
Zr1976     O2004   2.370       .  S
Zr1976     O2006   2.371       .  S
O1977      H2018   0.990       .  S
O1977      H2021   0.990       .  S
O1978      H2011   0.990       .  S
O1980     Zr2000   2.386       .  S
O1980      H2007   0.966       .  S
O1981     Zr1993   2.439       .  S
O1982     Zr2306   2.426       .  S
C1983      C2074   1.484   1_545  S
O1984     Zr1996   2.438   1_556  S
O1984      C2292   1.289       .  A
O1985     Zr1999   2.426       .  S
O1985      C2292   1.287   1_554  A
C1986      O2290   1.289       .  A
C1986      O2291   1.287       .  A
C1986      C2024   1.485       .  S
O1987     Zr1996   2.439       .  S
O1987      C2295   1.288       .  A
O1988      C2295   1.287       .  A
C1989      O2293   1.288       .  A
C1989      O2294   1.287       .  A
C1989      C2047   1.485       .  S
O1990     Zr1993   2.438       .  S
O1991     Zr2305   2.426       .  S
O1991      C1992   1.287       .  A
C1992      C2067   1.485       .  S
Zr1993     O1995   2.434       .  S
Zr1993     O2005   2.369       .  S
Zr1993     O2003   2.370       .  S
O1994      H2014   0.990       .  S
O1994      H2019   0.990       .  S
O1995      H2015   0.990       .  S
Zr1996     O2303   2.434   1_554  S
Zr1996     O1998   2.434       .  S
Zr1996     O2308   2.370   1_554  S
Zr1996     O2307   2.369   1_554  S
Zr1996     O2006   2.370       .  S
Zr1996     O2004   2.368       .  S
O1997     Zr2302   2.434       .  S
O1997      H2013   0.990       .  S
O1998      H2012   0.990       .  S
O1998      H2022   0.990       .  S
Zr1999     O2297   2.426   1_554  S
Zr1999     O2308   2.381   1_554  S
Zr1999     O2004   2.385       .  S
Zr2000     O2288   2.426   1_554  S
Zr2000     O2309   2.382   1_554  S
O2001     Zr2302   2.369       .  S
O2001      H2009   0.966       .  S
O2002     Zr2302   2.370       .  S
O2002     Zr2305   2.381       .  S
O2003     Zr2279   2.370       .  S
O2003     Zr2306   2.382       .  S
O2004      H2008   0.966       .  S
O2005     Zr2279   2.370       .  S
O2005      H2010   0.966       .  S
C2023      C2024   1.408       .  A
C2023      C2028   1.401       .  A
C2023      H2029   1.083       .  S
C2024      C2331   1.406       .  A
C2025      C2330   1.406   1_554  A
C2025      C2026   1.394       .  A
C2025      H2030   1.083       .  S
C2026      C2027   1.406   1_554  A
C2026      H2031   1.083       .  S
C2027      C2334   1.407       .  A
C2028      C2333   1.407       .  A
C2028      H2032   1.083       .  S
C2033      C2034   1.406       .  A
C2033      C2038   1.395       .  A
C2033      H2039   1.083       .  S
C2034      C2035   1.407       .  A
C2035      C2036   1.400       .  A
C2035      H2040   1.083       .  S
C2036      C2037   1.407       .  A
C2036      H2041   1.083       .  S
C2037      C2038   1.406       .  A
C2038      H2042   1.083       .  S
C2043      C2044   1.407       .  A
C2043      C2048   1.400       .  A
C2043      H2049   1.083       .  S
C2044      C2045   1.406       .  A
C2045      C2046   1.395       .  A
C2045      H2050   1.083       .  S
C2046      C2047   1.406       .  A
C2046      H2051   1.083       .  S
C2047      C2048   1.407       .  A
C2048      H2052   1.083       .  S
C2053      C2054   1.407       .  A
C2053      C2058   1.401       .  A
C2053      H2059   1.083       .  S
C2054      C2361   1.406       .  A
C2055      C2360   1.406       .  A
C2055      C2056   1.394       .  A
C2055      H2060   1.083       .  S
C2056      C2057   1.405       .  A
C2056      H2061   1.083       .  S
C2057      C2364   1.407   1_554  A
C2058      C2363   1.407       .  A
C2058      H2062   1.083       .  S
C2063      C2064   1.407       .  A
C2063      H2069   1.083       .  S
C2064      C2065   1.406       .  A
C2065      H2070   1.083       .  S
C2066      C2067   1.406       .  A
C2066      H2071   1.083       .  S
C2067      C2068   1.407       .  A
C2068      H2072   1.083       .  S
C2073      C2074   1.406       .  A
C2073      C2078   1.394       .  A
C2073      H2079   1.083       .  S
C2075      C2076   1.401       .  A
C2075      H2080   1.083       .  S
C2076      H2081   1.083       .  S
C2077      C2078   1.406       .  A
C2078      H2082   1.083       .  S
C2083      C2084   1.407       .  A
C2083      C2088   1.401       .  A
C2083      H2089   1.083       .  S
C2085      C2086   1.394       .  A
C2085      H2090   1.083       .  S
C2086      C2087   1.406       .  A
C2086      H2091   1.083       .  S
C2088      H2092   1.083       .  S
C2093      C2098   1.401       .  A
C2093      H2099   1.083       .  S
C2094      C2095   1.406       .  A
C2095      C2096   1.394       .  A
C2095      H2100   1.083       .  S
C2096      C2097   1.406       .  A
C2096      H2101   1.083       .  S
C2098      H2102   1.083       .  S
C2103      C2108   1.395       .  A
C2103      H2109   1.083       .  S
C2104      C2105   1.407   1_455  A
C2105      C2106   1.401       .  A
C2105      H2110   1.083       .  S
C2106      H2111   1.083       .  S
C2107      C2108   1.406       .  A
C2108      H2112   1.083       .  S
C2113      C2114   1.407       .  A
C2113      C2118   1.400       .  A
C2113      H2119   1.083       .  S
C2115      C2116   1.395       .  A
C2115      H2120   1.083       .  S
C2116      H2121   1.083       .  S
C2117      C2118   1.407       .  A
C2118      H2122   1.083       .  S
C2123      C2124   1.406       .  A
C2123      C2128   1.400       .  A
C2123      H2129   1.083       .  S
C2125      C2126   1.395       .  A
C2125      H2130   1.083       .  S
C2126      C2127   1.404       .  A
C2126      H2131   1.083       .  S
C2128      H2132   1.083       .  S
C2133      C2138   1.400       .  A
C2133      H2139   1.083       .  S
C2134      C2135   1.406       .  A
C2135      C2136   1.395       .  A
C2135      H2140   1.083       .  S
C2136      C2137   1.406       .  A
C2136      H2141   1.083       .  S
C2138      H2142   1.083       .  S
O2143     Zr2155   2.438       .  S
O2143      C2145   1.288       .  A
O2144      C2145   1.287       .  A
C2145      C2403   1.484       .  S
O2146     Zr2158   2.440       .  S
O2146      C2148   1.289       .  A
O2147      C2148   1.287       .  A
C2148      C2410   1.483       .  S
O2149     Zr2158   2.439   1_655  S
O2149      C2151   1.289       .  A
O2150     Zr2181   2.426       .  S
C2151      C2440   1.484       .  S
O2152     Zr2155   2.437       .  S
O2152      C2154   1.288       .  A
O2153     Zr2182   2.426   1_655  S
C2154      C2370   1.484       .  S
Zr2155     O2156   2.434       .  S
Zr2155     O2161   2.369       .  S
Zr2155     O2162   2.369       .  S
O2156      H2199   0.990       .  S
O2157      H2198   0.990       .  S
O2157      H2202   0.990       .  S
Zr2158     O2159   2.436   1_455  S
Zr2158     O2162   2.370   1_455  S
Zr2158     O2161   2.369   1_455  S
O2159      H2200   0.990       .  S
O2159      H2203   0.990       .  S
O2160      H2193   0.990       .  S
O2162      H2189   0.966       .  S
O2163     Zr2175   2.441       .  S
O2163      C2165   1.289       .  A
O2164     Zr2182   2.425   1_655  S
C2165      C2420   1.483       .  S
O2166     Zr2178   2.437       .  S
O2166      C2168   1.288       .  A
O2167     Zr2181   2.426       .  S
C2168      C2390   1.484       .  S
O2169     Zr2178   2.437       .  S
O2169      C2171   1.288       .  A
O2170      C2171   1.287       .  A
C2171      C2383   1.485       .  S
O2172     Zr2175   2.440       .  S
O2172      C2174   1.289       .  A
O2173      C2174   1.287       .  A
C2174      C2430   1.478       .  S
Zr2175     O2176   2.435       .  S
Zr2175     O2183   2.371       .  S
Zr2175     O2184   2.372       .  S
O2176      H2196   0.990       .  S
O2176      H2201   0.990       .  S
O2177      H2197   0.990       .  S
Zr2178     O2179   2.434       .  S
Zr2178     O2184   2.371       .  S
Zr2178     O2183   2.370       .  S
O2179      H2195   0.990       .  S
O2180      H2194   0.990       .  S
O2180      H2204   0.990       .  S
Zr2181     O2186   2.384       .  S
Zr2182     O2185   2.382   1_455  S
O2183      H2191   0.966       .  S
O2186      H2190   0.966       .  S
O2187      H2192   0.966       .  S
O2205     Zr2217   2.441       .  S
O2205      C2207   1.289       .  A
O2206     Zr2243   2.425       .  S
C2207      C2443   1.484       .  S
O2208     Zr2220   2.437       .  S
O2208      C2210   1.288       .  A
O2209     Zr2244   2.428   1_655  S
O2209      C2210   1.287       .  A
C2210      C2333   1.484       .  S
O2211     Zr2220   2.437       .  S
O2211      C2213   1.288       .  A
O2212      C2213   1.287       .  A
C2213      C2340   1.484       .  S
O2214     Zr2217   2.439       .  S
O2214      C2216   1.289   1_655  A
O2215     Zr2244   2.426       .  S
O2215      C2216   1.287       .  A
C2216      C2433   1.478   1_455  S
Zr2217     O2218   2.434       .  S
Zr2217     O2223   2.370       .  S
Zr2217     O2224   2.369       .  S
O2218      H2261   0.990       .  S
O2219      H2260   0.990       .  S
O2219      H2264   0.990       .  S
Zr2220     O2221   2.435       .  S
Zr2220     O2224   2.369       .  S
Zr2220     O2223   2.369       .  S
O2221      H2262   0.990       .  S
O2221      H2265   0.990       .  S
O2222      H2255   0.990       .  S
O2224     Zr2244   2.386   1_655  S
O2224      H2251   0.966       .  S
O2225     Zr2237   2.439       .  S
C2227      C2350   1.485       .  S
O2228     Zr2240   2.439       .  S
O2228      C2230   1.289       .  A
O2229      C2230   1.287       .  A
C2230      C2413   1.484       .  S
O2231     Zr2240   2.440       .  S
O2231      C2233   1.289       .  A
C2233      C2423   1.483       .  S
O2234     Zr2237   2.437       .  S
O2235     Zr2243   2.427       .  S
C2236      C2360   1.483       .  S
Zr2237     O2239   2.434       .  S
Zr2237     O2249   2.370       .  S
Zr2237     O2247   2.370       .  S
O2238      H2258   0.990       .  S
O2238      H2263   0.990       .  S
O2239      H2259   0.990       .  S
Zr2240     O2241   2.434       .  S
Zr2240     O2246   2.371       .  S
Zr2240     O2245   2.370       .  S
O2241      H2257   0.990       .  S
O2242      H2256   0.990       .  S
O2242      H2266   0.990       .  S
Zr2243     O2249   2.385       .  S
O2245      H2253   0.966       .  S
O2248      H2252   0.966       .  S
O2249      H2254   0.966       .  S
O2267     Zr2279   2.439       .  S
O2267      C2269   1.289       .  A
O2268      C2269   1.287       .  A
C2269      C2343   1.484       .  S
O2270     Zr2282   2.438       .  S
O2271     Zr2306   2.425       .  S
O2271      C2272   1.287       .  A
C2272      C2393   1.484       .  S
O2273     Zr2282   2.439   1_545  S
O2274     Zr2305   2.425   1_545  S
C2275      C2400   1.484       .  S
O2276     Zr2279   2.438       .  S
O2276      C2278   1.289       .  A
O2277     Zr2306   2.426       .  S
O2277      C2278   1.287       .  A
C2278      C2363   1.483       .  S
Zr2279     O2280   2.434       .  S
Zr2279     O2285   2.370       .  S
Zr2279     O2286   2.369       .  S
O2280      H2323   0.990       .  S
O2281      H2322   0.990       .  S
O2281      H2326   0.990       .  S
Zr2282     O2284   2.435       .  S
Zr2282     O2310   2.370       .  S
Zr2282     O2312   2.371       .  S
O2283      H2324   0.990       .  S
O2283      H2327   0.990       .  S
O2284      H2317   0.990       .  S
O2286     Zr2306   2.386       .  S
O2286      H2313   0.966       .  S
O2287     Zr2299   2.439       .  S
C2289      C2380   1.484   1_545  S
O2290     Zr2302   2.438       .  S
O2291     Zr2305   2.426       .  S
C2292      C2330   1.485       .  S
O2293     Zr2302   2.439       .  S
C2295      C2353   1.485       .  S
O2296     Zr2299   2.437       .  S
O2297      C2298   1.287       .  A
C2298      C2373   1.484       .  S
Zr2299     O2301   2.434       .  S
Zr2299     O2311   2.369       .  S
Zr2299     O2309   2.370       .  S
O2300      H2320   0.990       .  S
O2300      H2325   0.990       .  S
O2301      H2321   0.990       .  S
Zr2302     O2304   2.434       .  S
Zr2302     O2312   2.370       .  S
Zr2302     O2310   2.368       .  S
O2303      H2319   0.990       .  S
O2304      H2318   0.990       .  S
O2304      H2328   0.990       .  S
Zr2305     O2310   2.385       .  S
O2307      H2315   0.966       .  S
O2310      H2314   0.966       .  S
O2311      H2316   0.966       .  S
C2329      C2330   1.408       .  A
C2329      C2334   1.402       .  A
C2329      H2335   1.083       .  S
C2331      C2332   1.394       .  A
C2331      H2336   1.083       .  S
C2332      C2333   1.406       .  A
C2332      H2337   1.083       .  S
C2334      H2338   1.083       .  S
C2339      C2340   1.406       .  A
C2339      C2344   1.394       .  A
C2339      H2345   1.083       .  S
C2340      C2341   1.407       .  A
C2341      C2342   1.400       .  A
C2341      H2346   1.083       .  S
C2342      C2343   1.407       .  A
C2342      H2347   1.083       .  S
C2343      C2344   1.406       .  A
C2344      H2348   1.083       .  S
C2349      C2350   1.407       .  A
C2349      C2354   1.400       .  A
C2349      H2355   1.083       .  S
C2350      C2351   1.406       .  A
C2351      C2352   1.395       .  A
C2351      H2356   1.083       .  S
C2352      C2353   1.406       .  A
C2352      H2357   1.083       .  S
C2353      C2354   1.407       .  A
C2354      H2358   1.083       .  S
C2359      C2360   1.407   1_556  A
C2359      C2364   1.401       .  A
C2359      H2365   1.083       .  S
C2361      C2362   1.394       .  A
C2361      H2366   1.083       .  S
C2362      C2363   1.405       .  A
C2362      H2367   1.083       .  S
C2364      H2368   1.083       .  S
C2369      C2370   1.407       .  A
C2369      H2375   1.083       .  S
C2370      C2371   1.406       .  A
C2371      H2376   1.083       .  S
C2372      C2373   1.406       .  A
C2372      H2377   1.083       .  S
C2373      C2374   1.407       .  A
C2374      H2378   1.083       .  S
C2379      C2380   1.406       .  A
C2379      C2384   1.394       .  A
C2379      H2385   1.083       .  S
C2381      C2382   1.401       .  A
C2381      H2386   1.083       .  S
C2382      H2387   1.083       .  S
C2383      C2384   1.406       .  A
C2384      H2388   1.083       .  S
C2389      C2390   1.407       .  A
C2389      C2394   1.401       .  A
C2389      H2395   1.083       .  S
C2391      C2392   1.394       .  A
C2391      H2396   1.083       .  S
C2392      C2393   1.406       .  A
C2392      H2397   1.083       .  S
C2394      H2398   1.083       .  S
C2399      C2404   1.401       .  A
C2399      H2405   1.083       .  S
C2400      C2401   1.406       .  A
C2401      C2402   1.394       .  A
C2401      H2406   1.083       .  S
C2402      C2403   1.406       .  A
C2402      H2407   1.083       .  S
C2404      H2408   1.083       .  S
C2409      C2414   1.395       .  A
C2409      H2415   1.083       .  S
C2410      C2411   1.407   1_455  A
C2411      C2412   1.401       .  A
C2411      H2416   1.083       .  S
C2412      H2417   1.083       .  S
C2413      C2414   1.406       .  A
C2414      H2418   1.083       .  S
C2419      C2420   1.407       .  A
C2419      C2424   1.400       .  A
C2419      H2425   1.083       .  S
C2421      C2422   1.395       .  A
C2421      H2426   1.083       .  S
C2422      H2427   1.083       .  S
C2423      C2424   1.407       .  A
C2424      H2428   1.083       .  S
C2429      C2430   1.406       .  A
C2429      C2434   1.401       .  A
C2429      H2435   1.083       .  S
C2431      C2432   1.395       .  A
C2431      H2436   1.083       .  S
C2432      C2433   1.404       .  A
C2432      H2437   1.083       .  S
C2434      H2438   1.083       .  S
C2439      C2444   1.400       .  A
C2439      H2445   1.083       .  S
C2440      C2441   1.406       .  A
C2441      C2442   1.395       .  A
C2441      H2446   1.083       .  S
C2442      C2443   1.406       .  A
C2442      H2447   1.083       .  S
C2444      H2448   1.083       .  S
