geometry optimzed in LAMMPS
_audit_creation_date              2020-11-30 
_audit_creation_method            'lammps2cif' 
_symmetry_space_group_name_H-M    'P1' 
_symmetry_Int_Tables_number       1 
_symmetry_cell_setting            triclinic 
loop_ 
_symmetry_equiv_pos_as_xyz 
  x,y,z 
_cell_length_a                    41.64599893 
_cell_length_b                    41.73790661951903 
_cell_length_c                    34.59232356478845 
_cell_angle_alpha                 89.86701426445798 
_cell_angle_beta                  90.3968895557664 
_cell_angle_gamma                 90.24034195110858 
loop_ 
_atom_site_label 
_atom_site_type_symbol 
_atom_site_fract_x 
_atom_site_fract_y 
_atom_site_fract_z 
_atom_site_charge 
C1          C  0.42665598  0.17129921  0.03944659     0.30400
C2          C  0.42814312  0.17172328  0.46030516     0.30400
C3          C  0.39453140  0.17880339  0.01923499    -0.05800
C4          C  0.44993411  0.19561641  0.02092598    -0.06600
C5          C  0.43731688  0.14003051  0.02032573    -0.06400
C6          C  0.39519580  0.17935544  0.47856846    -0.05800
C7          C  0.44997241  0.19657501  0.48067476    -0.06500
C8          C  0.43734285  0.13997460  0.48007342    -0.06400
C9          C  0.37153157  0.20075737  0.46720888    -0.31800
N10         N  0.35596386  0.21181636  0.49875676     0.14700
C11         C  0.37023958  0.19912839  0.03048852    -0.31800
H12         H  0.36567799  0.20682101  0.05979951     0.16600
C13         C  0.47125231  0.22045316  0.47009537    -0.30800
N14         N  0.48572013  0.23203313  0.00245717     0.13400
C15         C  0.47288593  0.21718729  0.03360775    -0.30800
C16         C  0.45483185  0.11369471  0.46863970    -0.31100
N17         N  0.46660345  0.09880584  0.00055487     0.13900
H18         H  0.46101488  0.10754000  0.43925413     0.16500
C19         C  0.45679853  0.11514999  0.03209724    -0.31100
H20         H  0.46542827  0.11090289  0.06124122     0.16500
H21         H  0.48046023  0.22142120  0.06313618     0.16500
H22         H  0.36813284  0.21011187  0.43826585     0.16600
H23         H  0.47633584  0.22866379  0.44108182     0.16500
C24         C  0.42994911  0.17076563  0.28911534     0.30400
C25         C  0.42838369  0.17116071  0.20998574     0.30400
C26         C  0.39994222  0.18538050  0.27014337    -0.05800
C27         C  0.45694513  0.19042336  0.26911985    -0.06600
C28         C  0.43305413  0.13769416  0.26976471    -0.06400
C29         C  0.39879901  0.18465756  0.23018415    -0.05800
C30         C  0.45652739  0.18976791  0.22875305    -0.06500
C31         C  0.43254263  0.13781272  0.22894861    -0.06400
C32         C  0.37238748  0.20209977  0.21855466    -0.31800
N33         N  0.35797167  0.21407895  0.25040659     0.14700
C34         C  0.37486308  0.20441596  0.28203146    -0.31800
H35         H  0.37036636  0.21224035  0.31129444     0.16600
C36         C  0.48098880  0.20947344  0.21606479    -0.30800
N37         N  0.49504466  0.22353746  0.24722597     0.13400
C38         C  0.48062085  0.21221764  0.27964304    -0.30800
C39         C  0.45261400  0.11308803  0.21780419    -0.31100
N40         N  0.46390144  0.09748832  0.24935419     0.13900
H41         H  0.46159059  0.10933634  0.18888241     0.16500
C42         C  0.45265810  0.11260196  0.28099136    -0.31100
H43         H  0.46140566  0.10837455  0.31009694     0.16500
H44         H  0.48592904  0.22078647  0.30847669     0.16500
H45         H  0.36555698  0.20763223  0.18904449     0.16600
H46         H  0.48731574  0.21419349  0.18631499     0.16500
C47         C  0.16930836  0.14540302  0.45887250     0.30400
C48         C  0.16919064  0.14554423  0.03785327     0.30400
C49         C  0.13663011  0.13768799  0.47771625    -0.05800
C50         C  0.19104169  0.12026232  0.47855227    -0.06600
C51         C  0.17967246  0.17705639  0.47814922    -0.06400
C52         C  0.13665509  0.13801571  0.01849347    -0.05800
C53         C  0.19182456  0.12118160  0.01876852    -0.06500
C54         C  0.18035926  0.17674694  0.01863343    -0.06400
C55         C  0.11421238  0.11549495  0.03009277    -0.31800
N56         N  0.10059859  0.10162123  0.49874017     0.14700
C57         C  0.11440934  0.11443109  0.46691901    -0.31800
H58         H  0.11140006  0.10485737  0.43805840     0.16600
C59         C  0.21492421  0.09976675  0.03076477    -0.30800
N60         N  0.22676525  0.08467821  0.49934504     0.13400
C61         C  0.21164731  0.09623922  0.46740034    -0.30800
C62         C  0.20431144  0.19794920  0.02959199    -0.31100
N63         N  0.21606993  0.21289086  0.49797671     0.13900
H64         H  0.21410626  0.20052511  0.05850259     0.16500
C65         C  0.20165996  0.20001066  0.46645442    -0.31100
H66         H  0.20860621  0.20509030  0.43700236     0.16500
H67         H  0.21589888  0.08805157  0.43826693     0.16500
H68         H  0.11096641  0.10703665  0.05941792     0.16600
H69         H  0.22299642  0.09554138  0.06010022     0.16500
C70         C  0.16987278  0.14351293  0.20899850     0.30400
C71         C  0.16941166  0.14507078  0.28794463     0.30400
C72         C  0.13803977  0.13350664  0.22812373    -0.05800
C73         C  0.19510004  0.12238370  0.22936984    -0.06600
C74         C  0.17772886  0.17640525  0.22733403    -0.06400
C75         C  0.13829389  0.13334987  0.26852318    -0.05800
C76         C  0.19432623  0.12245092  0.26963670    -0.06500
C77         C  0.17705033  0.17720438  0.26807750    -0.06400
C78         C  0.11674237  0.10979000  0.27968617    -0.31800
N79         N  0.10148077  0.09788337  0.24817444     0.14700
C80         C  0.11449663  0.11192205  0.21656022    -0.31800
H81         H  0.10900923  0.10506424  0.18709861     0.16600
C82         C  0.21835697  0.10222742  0.28214480    -0.30800
N83         N  0.23471472  0.09153110  0.25095392     0.13400
C84         C  0.22099635  0.10408604  0.21867678    -0.30800
C85         C  0.19982270  0.19958624  0.27950038    -0.31100
N86         N  0.21415442  0.21236459  0.24811155     0.13900
H87         H  0.20798126  0.20351180  0.30889075     0.16500
C88         C  0.20146370  0.19803961  0.21642262    -0.31100
H89         H  0.21129789  0.20037521  0.18765737     0.16500
H90         H  0.22916675  0.09990819  0.18954385     0.16500
H91         H  0.11400823  0.10047822  0.30872234     0.16600
H92         H  0.22383729  0.09566304  0.31170899     0.16500
C93         C  0.38306054  0.43107200  0.46178914     0.30400
C94         C  0.38351324  0.43028074  0.04127432     0.30400
C95         C  0.41544881  0.44046452  0.48154671    -0.05800
C96         C  0.35939080  0.45349962  0.48179617    -0.06600
C97         C  0.37627504  0.39830316  0.48109081    -0.06400
C98         C  0.41523632  0.44075655  0.02201034    -0.05800
C99         C  0.35961527  0.45347536  0.02194109    -0.06500
C100        C  0.37585378  0.39832524  0.02138517    -0.06400
C101        C  0.44285791  0.45641230  0.03401028    -0.31800
N102        N  0.46076771  0.46379084  0.50257007     0.14700
C103        C  0.44462010  0.45362927  0.47058139    -0.31800
H104        H  0.45300419  0.45743019  0.44143992     0.16600
C105        C  0.33800177  0.47657204  0.03334001    -0.30800
N106        N  0.32401422  0.48931224  0.50129765     0.13400
C107        C  0.33721782  0.47571224  0.46965800    -0.30800
C108        C  0.36110812  0.37035335  0.03304671    -0.31100
N109        N  0.35340239  0.35290678  0.50122980     0.13900
H110        H  0.35361590  0.36471133  0.06219510     0.16500
C111        C  0.36367336  0.36915560  0.46956358    -0.31100
H112        H  0.35975193  0.36133610  0.44019493     0.16500
H113        H  0.33131119  0.48178426  0.44001718     0.16500
H114        H  0.44833638  0.46406691  0.06319575     0.16600
H115        H  0.33268929  0.48379132  0.06261024     0.16500
C116        C  0.38276143  0.42998286  0.21179828     0.30400
C117        C  0.38422906  0.43085047  0.29122778     0.30400
C118        C  0.41622310  0.43510681  0.23049847    -0.05800
C119        C  0.36344416  0.45676605  0.23115182    -0.06600
C120        C  0.37096860  0.39958879  0.23208336    -0.06400
C121        C  0.41731641  0.43460872  0.27120877    -0.05800
C122        C  0.36395293  0.45664733  0.27128497    -0.06500
C123        C  0.37168882  0.39960679  0.27226781    -0.06400
C124        C  0.44601132  0.44895926  0.28186807    -0.31800
N125        N  0.46070510  0.46061082  0.24994119     0.14700
C126        C  0.44252705  0.45281974  0.21873164    -0.31800
H127        H  0.44631069  0.46227822  0.18995047     0.16600
C128        C  0.34448867  0.48094693  0.28356671    -0.30800
N129        N  0.33189974  0.49584572  0.25209439     0.13400
C130        C  0.34401038  0.48187697  0.21989253    -0.30800
C131        C  0.35910522  0.37033736  0.28376088    -0.31100
N132        N  0.34971387  0.35374108  0.25187669     0.13900
H133        H  0.35574033  0.36193441  0.31303913     0.16500
C134        C  0.35743199  0.37117768  0.22015876    -0.31100
H135        H  0.35173571  0.36459117  0.19063845     0.16500
H136        H  0.33828189  0.48895230  0.19057242     0.16500
H137        H  0.45465143  0.45280514  0.31094338     0.16600
H138        H  0.33955386  0.48710100  0.31330228     0.16500
C139        C  0.14057291  0.38795471  0.46110822     0.30400
C140        C  0.14316501  0.38786605  0.04032544     0.30400
C141        C  0.13592536  0.42087590  0.48054674    -0.05800
C142        C  0.11577284  0.36641650  0.48173168    -0.06600
C143        C  0.17215039  0.37594677  0.47948207    -0.06400
C144        C  0.13671972  0.42081602  0.02132982    -0.05800
C145        C  0.11609063  0.36762389  0.02196417    -0.06500
C146        C  0.17352696  0.37643696  0.01958939    -0.06400
C147        C  0.11601414  0.44493404  0.03267435    -0.31800
N148        N  0.10445544  0.46044099  0.50117745     0.14700
C149        C  0.11618833  0.44584884  0.46943022    -0.31800
H150        H  0.10817863  0.45080531  0.44021818     0.16600
C151        C  0.09239653  0.34709512  0.03487173    -0.30800
N152        N  0.07946883  0.33178372  0.50387414     0.13400
C153        C  0.09431989  0.34256800  0.47159166    -0.30800
C154        C  0.20048657  0.35960884  0.03080198    -0.31100
N155        N  0.21505265  0.34805935  0.49879561     0.13900
H156        H  0.20734937  0.35375042  0.06020868     0.16500
C157        C  0.19780025  0.35763445  0.46732250    -0.31100
H158        H  0.20213240  0.34977910  0.43802887     0.16500
H159        H  0.09029434  0.33289829  0.44297726     0.16500
H160        H  0.10705971  0.44845908  0.06164692     0.16600
H161        H  0.08608276  0.34240629  0.06462076     0.16500
C162        C  0.14416833  0.38732635  0.29017072     0.30400
C163        C  0.14472283  0.38728526  0.21109327     0.30400
C164        C  0.17677977  0.38011725  0.27151523    -0.05800
C165        C  0.12261054  0.36169035  0.27048176    -0.06600
C166        C  0.13325698  0.41850665  0.27047103    -0.06400
C167        C  0.17723419  0.38090702  0.23087601    -0.05800
C168        C  0.12251701  0.36205733  0.23013140    -0.06500
C169        C  0.13304308  0.41831534  0.23016615    -0.06400
C170        C  0.20150892  0.36064005  0.21939182    -0.31800
N171        N  0.21555234  0.34751514  0.25094898     0.14700
C172        C  0.19978227  0.35797412  0.28246778    -0.31800
H173        H  0.20273883  0.34798136  0.31118482     0.16600
C174        C  0.10152529  0.33832025  0.21808909    -0.30800
N175        N  0.09016537  0.32265972  0.24961459     0.13400
C176        C  0.10271055  0.33676109  0.28175428    -0.30800
C177        C  0.11141492  0.44151139  0.21845628    -0.31100
N178        N  0.10004048  0.45683457  0.24996998     0.13900
H179        H  0.10284723  0.44540426  0.18921068     0.16500
C180        C  0.11250578  0.44240845  0.28185104    -0.31100
H181        H  0.10500902  0.44715957  0.31117626     0.16500
H182        H  0.09762635  0.32925135  0.31104108     0.16500
H183        H  0.20617545  0.35322756  0.19000538     0.16600
H184        H  0.09477267  0.33267983  0.18862482     0.16500
O185        O  0.06868919  0.06394630  0.03182052    -0.72500
O186        O  0.50027154  0.99504823  0.03417570    -0.73500
O187        O  0.06930952  0.49532890  0.03327310    -0.62100
O188        O  0.00082823  0.06298566  0.03287778    -0.70500
O189        O  0.99991684  0.06230496  0.46874040    -0.70100
O190        O  0.06850162  0.49491802  0.46916329    -0.61300
O191        O  0.49972759  0.99445228  0.47007923    -0.73800
O192        O  0.06776330  0.06336743  0.46771395    -0.72600
Cu193      Cu  0.03491954  0.02919507  0.03529153     1.04600
Cu194      Cu  0.03403808  0.02857119  0.46674750     1.04300
C195        C  0.07831829  0.07518225  0.49943569     0.93700
C196        C  0.48833962  0.98476754  0.50232566     0.92800
C197        C  0.07986510  0.48452233  0.50122691     0.85000
C198        C  0.98983453  0.07356498  0.50073426     0.91200
O199        O  0.06588998  0.49295152  0.21748922    -0.72500
O200        O  0.99833617  0.06195557  0.21720402    -0.73500
O201        O  0.06669476  0.06167549  0.21649247    -0.62100
O202        O  0.49759174  0.99380682  0.21769839    -0.70500
O203        O  0.49817784  0.99383093  0.28182241    -0.70100
O204        O  0.06732158  0.06181309  0.28060153    -0.61300
O205        O  0.99894523  0.06203564  0.28132406    -0.73800
O206        O  0.06636946  0.49326335  0.28160854    -0.72600
Cu207      Cu  0.03217207  0.02755717  0.21499166     1.04600
Cu208      Cu  0.03279230  0.02773481  0.28354410     1.04300
C209        C  0.07652799  0.48196104  0.24966550     0.93700
C210        C  0.48794617  0.07285936  0.24928599     0.92800
C211        C  0.07768531  0.07275702  0.24839874     0.85000
C212        C  0.48674518  0.98332639  0.24984014     0.91200
O213        O  0.25236949  0.24676419  0.03027281    -0.72500
O214        O  0.32062912  0.31494331  0.03227342    -0.73500
O215        O  0.25218596  0.31474002  0.03094322    -0.62100
O216        O  0.32073802  0.24658281  0.03099324    -0.70500
O217        O  0.32089854  0.24738259  0.46689675    -0.70100
O218        O  0.25213400  0.31513515  0.46683379    -0.61300
O219        O  0.32072939  0.31573868  0.46816543    -0.73800
O220        O  0.25234967  0.24714031  0.46614047    -0.72600
Cu221      Cu  0.28654997  0.28071222  0.03334116     1.04600
Cu222      Cu  0.28663164  0.28136413  0.46479496     1.04300
C223        C  0.24132720  0.23639037  0.49807617     0.93700
C224        C  0.33115934  0.32648651  0.50053215     0.92800
C225        C  0.24096203  0.32532689  0.49884501     0.85000
C226        C  0.33160947  0.23618200  0.49888733     0.91200
O227        O  0.25120081  0.31354261  0.21864556    -0.72500
O228        O  0.32050164  0.24680555  0.21827585    -0.73500
O229        O  0.25173141  0.24569483  0.21705332    -0.62100
O230        O  0.31909351  0.31484765  0.21941043    -0.70500
O231        O  0.31899755  0.31438189  0.28354954    -0.70100
O232        O  0.25166753  0.24476872  0.28116839    -0.61300
O233        O  0.32054519  0.24629717  0.28241044    -0.73800
O234        O  0.25097514  0.31256243  0.28278494    -0.72600
Cu235      Cu  0.28572705  0.28012401  0.21613907     1.04600
Cu236      Cu  0.28561933  0.27931427  0.28471969     1.04300
C237        C  0.24015415  0.32358998  0.25078172     0.93700
C238        C  0.33186504  0.23641805  0.25035379     0.92800
C239        C  0.24036966  0.23492552  0.24878046     0.85000
C240        C  0.32899262  0.32619173  0.25165916     0.91200
C241        C  0.11421516  0.38464496  0.35338451    -0.25900
C242        C  0.14362487  0.38940498  0.33448668    -0.14000
C243        C  0.16954536  0.40154117  0.35729248     0.36700
C244        C  0.16771225  0.40041558  0.39766032    -0.25300
C245        C  0.13993071  0.38974716  0.41670477    -0.14600
C246        C  0.11168407  0.38600561  0.39385848     0.37800
N247        N  0.08035742  0.38540874  0.41103767    -0.88800
H248        H  0.09257215  0.38143733  0.33635197     0.18900
H249        H  0.18816517  0.40879038  0.41437727     0.18900
N250        N  0.19640701  0.41834851  0.34112437    -0.87900
H251        H  0.06243222  0.38208031  0.39010525     0.36200
H252        H  0.07615652  0.40772048  0.42348350     0.41300
H253        H  0.18836831  0.43446807  0.32004792     0.41000
H254        H  0.21284465  0.40240926  0.32952860     0.35800
C255        C  0.15362923  0.41476337  0.10503315    -0.25900
C256        C  0.14649512  0.38643651  0.08457281    -0.14000
C257        C  0.14615921  0.35724454  0.10616899     0.36700
C258        C  0.14571488  0.35844180  0.14661426    -0.25300
C259        C  0.14693258  0.38754000  0.16685150    -0.14600
C260        C  0.15518217  0.41538312  0.14560900     0.39000
N261        N  0.16635595  0.44380786  0.16498741    -0.88800
H262        H  0.15940571  0.43647397  0.08942674     0.18900
H263        H  0.14561636  0.33602769  0.16236395     0.18900
N264        N  0.14806466  0.32592094  0.08901028    -0.87900
H265        H  0.17144004  0.46204896  0.14515427     0.36200
H266        H  0.18804227  0.43819914  0.17877592     0.41300
H267        H  0.15032618  0.32647827  0.05912320     0.41000
H268        H  0.12709900  0.31325834  0.09561884     0.35800
C269        C  0.39805526  0.45649451  0.39742284    -0.25900
C270        C  0.38009758  0.43326031  0.41748505    -0.14000
C271        C  0.35496056  0.41851290  0.39562116     0.36700
C272        C  0.35746631  0.41744405  0.35524446    -0.25300
C273        C  0.38235037  0.43334306  0.33551585    -0.14600
C274        C  0.39819978  0.45768927  0.35684119     0.37800
N275        N  0.41032561  0.48586240  0.33811345    -0.88800
H276        H  0.40977708  0.47565157  0.41301824     0.18900
H277        H  0.33784467  0.40677367  0.33921249     0.18900
N278        N  0.32465607  0.40897511  0.41188592    -0.87900
H279        H  0.43344164  0.49048641  0.34875656     0.36200
H280        H  0.39610550  0.50516684  0.34658554     0.41300
H281        H  0.32341104  0.41285734  0.44153912     0.41000
H282        H  0.32064635  0.38470268  0.40625711     0.35800
C283        C  0.35374897  0.43105592  0.10519263    -0.25900
C284        C  0.38296823  0.42792787  0.08543200    -0.14000
C285        C  0.40945485  0.41649523  0.10699049     0.36700
C286        C  0.40879828  0.41755889  0.14747588    -0.25300
C287        C  0.38119434  0.42729538  0.16756084    -0.14600
C288        C  0.35219100  0.42973408  0.14564740     0.37800
N289        N  0.32071612  0.42830692  0.16246669    -0.88800
H290        H  0.33146763  0.43283419  0.08910860     0.18900
H291        H  0.42980929  0.40939801  0.16312775     0.18900
N292        N  0.43618557  0.40183479  0.08822546    -0.87900
H293        H  0.30906336  0.45000073  0.15707919     0.36200
H294        H  0.32125828  0.42434905  0.19216337     0.41300
H295        H  0.43746230  0.37800980  0.09750817     0.41000
H296        H  0.45718694  0.41338906  0.09746825     0.35800
C297        C  0.31028049  0.04666198  0.22739077    -0.25900
C298        C  0.30787099  0.02049200  0.25274031    -0.14000
C299        C  0.28148087  0.01838808  0.27807853     0.36700
C300        C  0.25825284  0.04255999  0.27764552    -0.25300
C301        C  0.26035181  0.06852266  0.25200081    -0.14600
C302        C  0.28694490  0.07090966  0.22698454     0.37800
N303        N  0.29039570  0.09809339  0.20176227    -0.88800
H304        H  0.33070035  0.04831048  0.20825408     0.18900
H305        H  0.23767102  0.04053017  0.29646384     0.18900
N306        N  0.27773895  0.49116025  0.30320727    -0.87900
H307        H  0.31124524  0.09615478  0.18527264     0.36200
H308        H  0.29326816  0.11839858  0.21910613     0.41300
H309        H  0.27419887  0.47099074  0.28580040     0.41000
H310        H  0.25718893  0.49343153  0.32016459     0.35800
C311        C  0.24762363  0.03281624  0.47811311    -0.25900
C312        C  0.25161166  0.06088221  0.49984028    -0.14000
C313        C  0.27983754  0.06523843  0.02214037     0.36700
C314        C  0.30321573  0.04109433  0.02277354    -0.25300
C315        C  0.29924593  0.01312643  0.50092022    -0.14600
C316        C  0.27105115  0.00872045  0.47871247     0.37800
N317        N  0.26609219  0.47946034  0.45762748    -0.88800
H318        H  0.22580660  0.02947872  0.46134802     0.18900
H319        H  0.32501936  0.04433132  0.03959905     0.18900
N320        N  0.28495106  0.09445434  0.04326348    -0.87900
H321        H  0.24405894  0.47989048  0.44295656     0.36200
H322        H  0.26472033  0.46077549  0.47774520     0.41300
H323        H  0.28655529  0.11311640  0.02313992     0.41000
H324        H  0.30689380  0.09385830  0.05812587     0.35800
C325        C  0.14191174  0.15578804  0.39400402    -0.25900
C326        C  0.16989096  0.14720203  0.41455726    -0.14000
C327        C  0.19883492  0.14581149  0.39339409     0.36700
C328        C  0.19784881  0.14554381  0.35292365    -0.25300
C329        C  0.16877876  0.14770936  0.33224199    -0.14600
C330        C  0.14138269  0.15756063  0.35351677     0.37800
N331        N  0.11430163  0.17303024  0.33580904    -0.88800
H332        H  0.12048353  0.16256235  0.40947913     0.18900
H333        H  0.22041037  0.14506946  0.33771282     0.18900
N334        N  0.22949979  0.14630288  0.41244553    -0.87900
H335        H  0.09998512  0.15668087  0.32094261     0.36200
H336        H  0.12242570  0.19086065  0.31694991     0.41300
H337        H  0.24183306  0.16682145  0.40338142     0.41000
H338        H  0.24267684  0.12662801  0.40285604     0.35800
C339        C  0.17174899  0.11629980  0.10211925    -0.25900
C340        C  0.16753605  0.14545429  0.08225664    -0.14000
C341        C  0.15683124  0.17196725  0.10438309     0.36700
C342        C  0.15817967  0.17055942  0.14479309    -0.25300
C343        C  0.16824275  0.14283983  0.16463919    -0.14600
C344        C  0.17208338  0.11444953  0.14264805     0.37800
N345        N  0.17595200  0.08367704  0.16089923    -0.88800
H346        H  0.17334609  0.09425431  0.08599667     0.18900
H347        H  0.15047721  0.19137782  0.16082616     0.18900
N348        N  0.14174280  0.19948175  0.08741552    -0.87900
H349        H  0.18036315  0.06582523  0.14047889     0.36200
H350        H  0.15452610  0.07737788  0.17431470     0.41300
H351        H  0.12405518  0.19198517  0.06782116     0.41000
H352        H  0.15853824  0.21390654  0.07357489     0.35800
C353        C  0.03749530  0.30196271  0.22975194    -0.25900
C354        C  0.06696122  0.29691613  0.24868276    -0.14000
C355        C  0.07302922  0.26662629  0.26593805     0.36700
C356        C  0.04886481  0.24296627  0.26530131    -0.25300
C357        C  0.01943160  0.24813514  0.24637333    -0.14600
C358        C  0.01387623  0.27800910  0.22823709     0.37800
N359        N  0.48411225  0.28508090  0.20915777    -0.88800
H360        H  0.03273868  0.32496976  0.21636462     0.18900
H361        H  0.05330320  0.22002285  0.27901269     0.18900
N362        N  0.10342838  0.25869240  0.28338890    -0.87900
H363        H  0.46536319  0.28074934  0.22844373     0.36200
H364        H  0.48147626  0.26990365  0.18541403     0.41300
H365        H  0.12017542  0.27707100  0.27984809     0.41000
H366        H  0.11269033  0.23912749  0.26834966     0.35800
C367        C  0.00482790  0.28421113  0.02530171    -0.25900
C368        C  0.01029110  0.25628370  0.00383531    -0.14000
C369        C  0.03958973  0.25288464  0.48372454     0.36700
C370        C  0.06168468  0.27827087  0.48381644    -0.25300
C371        C  0.05605527  0.30637224  0.00481236    -0.14600
C372        C  0.02736594  0.30940285  0.02587153     0.37800
N373        N  0.02085936  0.33837435  0.04671660    -0.88800
H374        H  0.48245766  0.28658559  0.04082112     0.18900
H375        H  0.08396460  0.27572073  0.46815370     0.18900
N376        N  0.04814435  0.22392742  0.46386858    -0.87900
H377        H  0.49868666  0.33679549  0.56062540     0.36200
H378        H  0.01892915  0.35695144  0.52649600     0.41300
H379        H  0.03151530  0.20569648  0.96886860     0.41000
H380        H  0.06966154  0.21570595  0.97597658     0.35800
C381        C  0.45811951  0.17205179  0.35448863    -0.25900
C382        C  0.42932247  0.16856210  0.33349720    -0.14000
C383        C  0.40157489  0.15917443  0.35470803     0.36700
C384        C  0.40181986  0.16146860  0.39510562    -0.25300
C385        C  0.42966465  0.16991267  0.41597366    -0.14600
C386        C  0.45890434  0.17188158  0.39513181     0.37800
N387        N  0.48944745  0.17332715  0.41474921    -0.88800
H388        H  0.48061699  0.17315681  0.33925079     0.18900
H389        H  0.38015053  0.15490200  0.41035564     0.18900
N390        N  0.37353681  0.14495355  0.33719704    -0.87900
H391        H  0.00817673  0.17663888  0.39516168     0.36200
H392        H  0.49364351  0.15135716  0.42816734     0.41300
H393        H  0.37679864  0.13902327  0.30828609     0.41000
H394        H  0.35443925  0.16098815  0.33947294     0.35800
C395        C  0.41620367  0.14469397  0.14543735    -0.25900
C396        C  0.42521422  0.17258624  0.16578451    -0.14000
C397        C  0.42729887  0.20164246  0.14412215     0.36700
C398        C  0.42768834  0.20027187  0.10371229    -0.25300
C399        C  0.42449750  0.17125805  0.08358962    -0.14600
C400        C  0.41465469  0.14411402  0.10494522     0.37800
N401        N  0.40142566  0.11651482  0.08599977    -0.88800
H402        H  0.40907244  0.12327419  0.16085293     0.18900
H403        H  0.42915747  0.22262047  0.08793706     0.18900
N404        N  0.42827836  0.23304777  0.16125741    -0.87900
H405        H  0.41454402  0.09643171  0.09475518     0.36200
H406        H  0.37785359  0.11340677  0.09557876     0.41300
H407        H  0.42496108  0.23247098  0.19096917     0.41000
H408        H  0.40870641  0.24592261  0.15037642     0.35800
C409        C  0.42666180  0.17130245  0.53944906     0.30400
C410        C  0.42813939  0.17171756  0.96030388     0.30400
C411        C  0.39453609  0.17880369  0.51923886    -0.05800
C412        C  0.44993685  0.19562260  0.52092835    -0.06600
C413        C  0.43732543  0.14003577  0.52032602    -0.06400
C414        C  0.39519220  0.17935404  0.97856488    -0.05800
C415        C  0.44997098  0.19656743  0.98067269    -0.06500
C416        C  0.43733421  0.13996799  0.98007316    -0.06400
C417        C  0.37152957  0.20075722  0.96720303    -0.31800
N418        N  0.35596182  0.21181817  0.99874987     0.14700
C419        C  0.37024313  0.19912666  0.53049434    -0.31800
H420        H  0.36568188  0.20681835  0.55980577     0.16600
C421        C  0.47125308  0.22044364  0.97009274    -0.30800
N422        N  0.48572014  0.23204190  0.50245973     0.13400
C423        C  0.47288786  0.21719427  0.53361024    -0.30800
C424        C  0.45482484  0.11368900  0.96864041    -0.31100
N425        N  0.46660734  0.09880875  0.50055428     0.13900
H426        H  0.46100742  0.10753359  0.93925486     0.16500
C427        C  0.45680294  0.11515232  0.53209724    -0.31100
H428        H  0.46543044  0.11090238  0.56124151     0.16500
H429        H  0.48046323  0.22142710  0.56313852     0.16500
H430        H  0.36813194  0.21011084  0.93825941     0.16600
H431        H  0.47633794  0.22865288  0.94107898     0.16500
C432        C  0.42994858  0.17076375  0.78911837     0.30400
C433        C  0.42838219  0.17116038  0.70998930     0.30400
C434        C  0.39994123  0.18537921  0.77014766    -0.05800
C435        C  0.45694483  0.19042175  0.76912354    -0.06600
C436        C  0.43305282  0.13769287  0.76976706    -0.06400
C437        C  0.39879739  0.18465633  0.73018853    -0.05800
C438        C  0.45652595  0.18976773  0.72875687    -0.06500
C439        C  0.43254124  0.13781207  0.72895124    -0.06400
C440        C  0.37238427  0.20209618  0.71855970    -0.31800
N441        N  0.35796863  0.21407544  0.75041171     0.14700
C442        C  0.37486124  0.20441367  0.78203635    -0.31800
H443        H  0.37036485  0.21223834  0.81129936     0.16600
C444        C  0.48098833  0.20947226  0.71606881    -0.30800
N445        N  0.49504704  0.22353368  0.74723005     0.13400
C446        C  0.48062381  0.21221274  0.77964720    -0.30800
C447        C  0.45261196  0.11308697  0.71780671    -0.31100
N448        N  0.46389841  0.09748639  0.74935665     0.13900
H449        H  0.46158906  0.10933552  0.68888510     0.16500
C450        C  0.45265527  0.11259974  0.78099387    -0.31100
H451        H  0.46140239  0.10837160  0.81009946     0.16500
H452        H  0.48593495  0.22077812  0.80848162     0.16500
H453        H  0.36555273  0.20762749  0.68904958     0.16600
H454        H  0.48731480  0.21419254  0.68631890     0.16500
C455        C  0.16930934  0.14540655  0.95887223     0.30400
C456        C  0.16918906  0.14554094  0.53785340     0.30400
C457        C  0.13663158  0.13769005  0.97771589    -0.05800
C458        C  0.19104375  0.12026646  0.97855188    -0.06600
C459        C  0.17967221  0.17706015  0.97814876    -0.06400
C460        C  0.13665354  0.13801408  0.51849383    -0.05800
C461        C  0.19182212  0.12117763  0.51876878    -0.06500
C462        C  0.18035864  0.17674329  0.51863380    -0.06400
C463        C  0.11421068  0.11549420  0.53009405    -0.31800
N464        N  0.10060006  0.10162248  0.99873838     0.14700
C465        C  0.11441109  0.11443308  0.96691771    -0.31800
H466        H  0.11140175  0.10486038  0.93805663     0.16600
C467        C  0.21492354  0.09976509  0.53076545    -0.30800
N468        N  0.22676422  0.08467886  0.99934391     0.13400
C469        C  0.21164706  0.09624141  0.96739965    -0.30800
C470        C  0.20430925  0.19794671  0.52959386    -0.31100
N471        N  0.21607081  0.21289367  0.99797447     0.13900
H472        H  0.21410205  0.20052366  0.55850527     0.16500
C473        C  0.20165959  0.20001405  0.96645291    -0.31100
H474        H  0.20860532  0.20509331  0.93700052     0.16500
H475        H  0.21589713  0.08805288  0.93826629     0.16500
H476        H  0.11096513  0.10703620  0.55941942     0.16600
H477        H  0.22299632  0.09554106  0.56010088     0.16500
C478        C  0.16987288  0.14351172  0.70899788     0.30400
C479        C  0.16940941  0.14507258  0.78794410     0.30400
C480        C  0.13804042  0.13350330  0.72812252    -0.05800
C481        C  0.19510155  0.12238569  0.72937096    -0.06600
C482        C  0.17772572  0.17640510  0.72733180    -0.06400
C483        C  0.13829252  0.13334947  0.76852213    -0.05800
C484        C  0.19432598  0.12245368  0.76963769    -0.06500
C485        C  0.17704600  0.17720583  0.76807535    -0.06400
C486        C  0.11673947  0.10979143  0.77968626    -0.31800
N487        N  0.10148133  0.09788084  0.74817409     0.14700
C488        C  0.11449947  0.11191649  0.71655931    -0.31800
H489        H  0.10901499  0.10505534  0.68709808     0.16600
C490        C  0.21835688  0.10223114  0.78214749    -0.30800
N491        N  0.23471730  0.09153620  0.75095814     0.13400
C492        C  0.22100027  0.10409049  0.71867994    -0.30800
C493        C  0.19981767  0.19958822  0.77949781    -0.31100
N494        N  0.21415071  0.21236473  0.74810890     0.13900
H495        H  0.20797552  0.20351462  0.80888828     0.16500
C496        C  0.20146085  0.19803883  0.71642024    -0.31100
H497        H  0.21129655  0.20037242  0.68765548     0.16500
H498        H  0.22917275  0.09991300  0.68954774     0.16500
H499        H  0.11400227  0.10048326  0.80872362     0.16600
H500        H  0.22383486  0.09566532  0.81171181     0.16500
C501        C  0.38306028  0.43107272  0.96178549     0.30400
C502        C  0.38351319  0.43028085  0.54127865     0.30400
C503        C  0.41544846  0.44046611  0.98154260    -0.05800
C504        C  0.35938950  0.45349890  0.98179215    -0.06600
C505        C  0.37627632  0.39830353  0.98108606    -0.06400
C506        C  0.41523645  0.44075602  0.52201455    -0.05800
C507        C  0.35961627  0.45347604  0.52194538    -0.06500
C508        C  0.37585243  0.39832537  0.52138999    -0.06400
C509        C  0.44285663  0.45641490  0.53401370    -0.31800
N510        N  0.46076866  0.46378939  0.00256684     0.14700
C511        C  0.44462032  0.45362994  0.97057760    -0.31800
H512        H  0.45300420  0.45743193  0.94143618     0.16600
C513        C  0.33800576  0.47657530  0.53334492    -0.30800
N514        N  0.32400776  0.48930649  0.00129269     0.13400
C515        C  0.33721281  0.47570781  0.96965330    -0.30800
C516        C  0.36110713  0.37035330  0.53305240    -0.31100
N517        N  0.35340306  0.35290767  0.00122362     0.13900
H518        H  0.35361545  0.36471142  0.56220102     0.16500
C519        C  0.36367436  0.36915653  0.96955780    -0.31100
H520        H  0.35975228  0.36133786  0.94018892     0.16500
H521        H  0.33130514  0.48177858  0.94001240     0.16500
H522        H  0.44833400  0.46407184  0.56319862     0.16600
H523        H  0.33269336  0.48379417  0.56261536     0.16500
C524        C  0.38275896  0.42998336  0.71180141     0.30400
C525        C  0.38422612  0.43084985  0.79122968     0.30400
C526        C  0.41622033  0.43510832  0.73050169    -0.05800
C527        C  0.36343999  0.45676546  0.73115538    -0.06600
C528        C  0.37096709  0.39958825  0.73208543    -0.06400
C529        C  0.41731353  0.43460999  0.77121129    -0.05800
C530        C  0.36394820  0.45664569  0.77128829    -0.06500
C531        C  0.37168668  0.39960583  0.77226970    -0.06400
C532        C  0.44601008  0.44895770  0.78187088    -0.31800
N533        N  0.46070474  0.46060847  0.74994394     0.14700
C534        C  0.44252589  0.45281863  0.71873457    -0.31800
H535        H  0.44631019  0.46227668  0.68995331     0.16600
C536        C  0.34448099  0.48094274  0.78357137    -0.30800
N537        N  0.33189226  0.49584222  0.75209954     0.13400
C538        C  0.34400438  0.48187536  0.71989719    -0.30800
C539        C  0.35910094  0.37033707  0.78376217    -0.31100
N540        N  0.34971008  0.35374093  0.75187756     0.13900
H541        H  0.35573410  0.36193470  0.81304036     0.16500
C542        C  0.35742966  0.37117758  0.72016011    -0.31100
H543        H  0.35173365  0.36459161  0.69063956     0.16500
H544        H  0.33827640  0.48895183  0.69057738     0.16500
H545        H  0.45465038  0.45280291  0.81094626     0.16600
H546        H  0.33954519  0.48709537  0.81330716     0.16500
C547        C  0.14057015  0.38795615  0.96110801     0.30400
C548        C  0.14316726  0.38786321  0.54032563     0.30400
C549        C  0.13592419  0.42087794  0.98054542    -0.05800
C550        C  0.11576911  0.36641966  0.98173223    -0.06600
C551        C  0.17214715  0.37594717  0.97948204    -0.06400
C552        C  0.13672024  0.42081320  0.52133093    -0.05800
C553        C  0.11609414  0.36762004  0.52196361    -0.06500
C554        C  0.17353002  0.37643624  0.51958954    -0.06400
C555        C  0.11601446  0.44493112  0.53267578    -0.31800
N556        N  0.10445399  0.46044279  0.00117599     0.14700
C557        C  0.11618637  0.44585026  0.96942877    -0.31800
H558        H  0.10817560  0.45080575  0.94021689     0.16600
C559        C  0.09239923  0.34709198  0.53487056    -0.30800
N560        N  0.07946656  0.33178577  0.00387571     0.13400
C561        C  0.09431695  0.34257033  0.97159291    -0.30800
C562        C  0.20048923  0.35960771  0.53080212    -0.31100
N563        N  0.21505035  0.34806116  0.99879529     0.13900
H564        H  0.20735159  0.35374890  0.56020888     0.16500
C565        C  0.19779778  0.35763612  0.96732229    -0.31100
H566        H  0.20213063  0.34978164  0.93802851     0.16500
H567        H  0.09029219  0.33289975  0.94297882     0.16500
H568        H  0.10705974  0.44845579  0.56164830     0.16600
H569        H  0.08608407  0.34240387  0.56461930     0.16500
C570        C  0.14416549  0.38732531  0.79017025     0.30400
C571        C  0.14471857  0.38728432  0.71109276     0.30400
C572        C  0.17677501  0.38011019  0.77151349    -0.05800
C573        C  0.12260259  0.36169379  0.77048159    -0.06600
C574        C  0.13326020  0.41850818  0.77047119    -0.06400
C575        C  0.17722883  0.38090058  0.73087466    -0.05800
C576        C  0.12250837  0.36206078  0.73013121    -0.06500
C577        C  0.13304496  0.41831654  0.73016591    -0.06400
C578        C  0.20150316  0.36063415  0.71938845    -0.31800
N579        N  0.21554671  0.34750840  0.75094488     0.14700
C580        C  0.19977640  0.35796568  0.78246444    -0.31800
H581        H  0.20273347  0.34797223  0.81118107     0.16600
C582        C  0.10151404  0.33832606  0.71808932    -0.30800
N583        N  0.09015326  0.32266717  0.74961540     0.13400
C584        C  0.10270057  0.33676662  0.78175479    -0.30800
C585        C  0.11141573  0.44151176  0.71845718    -0.31100
N586        N  0.10004279  0.45683571  0.74997092     0.13900
H587        H  0.10284559  0.44540284  0.68921223     0.16500
C588        C  0.11250991  0.44241074  0.78185163    -0.31100
H589        H  0.10501401  0.44716221  0.81117710     0.16500
H590        H  0.09761768  0.32925580  0.81104153     0.16500
H591        H  0.20617036  0.35322366  0.69000140     0.16600
H592        H  0.09476155  0.33268513  0.68862515     0.16500
O593        O  0.06868917  0.06394464  0.53182325    -0.72500
O594        O  0.50027055  0.99505099  0.53418055    -0.73500
O595        O  0.06931149  0.49532849  0.53327341    -0.62100
O596        O  0.00082893  0.06298436  0.53288112    -0.70500
O597        O  0.99991481  0.06230506  0.96873710    -0.70100
O598        O  0.06849874  0.49491858  0.96916296    -0.61300
O599        O  0.49972870  0.99445210  0.97007436    -0.73800
O600        O  0.06776262  0.06336977  0.96771133    -0.72600
Cu601      Cu  0.03492002  0.02919316  0.53529397     1.04600
Cu602      Cu  0.03403693  0.02857235  0.96674514     1.04300
C603        C  0.07831851  0.07518406  0.99943318     0.93700
C604        C  0.48834131  0.98476523  0.00232008     0.92800
C605        C  0.07986291  0.48452319  0.00122621     0.85000
C606        C  0.98983243  0.07356491  0.00073094     0.91200
O607        O  0.06589054  0.49295057  0.71748983    -0.72500
O608        O  0.99833806  0.06195654  0.71720311    -0.73500
O609        O  0.06669613  0.06167250  0.71649215    -0.62100
O610        O  0.49759076  0.99380608  0.71770104    -0.70500
O611        O  0.49817800  0.99382951  0.78182502    -0.70100
O612        O  0.06732231  0.06181056  0.78060124    -0.61300
O613        O  0.99894661  0.06203677  0.78132318    -0.73800
O614        O  0.06637013  0.49326320  0.78160916    -0.72600
Cu615      Cu  0.03217193  0.02755626  0.71499081     1.04600
Cu616      Cu  0.03279153  0.02773408  0.78354337     1.04300
C617        C  0.07652902  0.48196089  0.74966631     0.93700
C618        C  0.48794341  0.07285795  0.74928855     0.92800
C619        C  0.07768635  0.07275416  0.74839848     0.85000
C620        C  0.48674524  0.98332472  0.74984298     0.91200
O621        O  0.25236820  0.24676151  0.53027645    -0.72500
O622        O  0.32062973  0.31494060  0.53227976    -0.73500
O623        O  0.25218666  0.31473771  0.53094522    -0.62100
O624        O  0.32073790  0.24657900  0.53100080    -0.70500
O625        O  0.32089693  0.24738524  0.96688915    -0.70100
O626        O  0.25213239  0.31513885  0.96683181    -0.61300
O627        O  0.32072815  0.31574157  0.96815902    -0.73800
O628        O  0.25234829  0.24714412  0.96613675    -0.72600
Cu629      Cu  0.28654984  0.28070926  0.53334620     1.04600
Cu630      Cu  0.28663004  0.28136757  0.96478984     1.04300
C631        C  0.24132755  0.23639342  0.99807290     0.93700
C632        C  0.33115882  0.32648874  0.00052571     0.92800
C633        C  0.24096056  0.32532959  0.99884363     0.85000
C634        C  0.33160843  0.23618490  0.99887970     0.91200
O635        O  0.25119957  0.31354034  0.71864130    -0.72500
O636        O  0.32049964  0.24680198  0.71827907    -0.73500
O637        O  0.25172935  0.24569326  0.71705126    -0.62100
O638        O  0.31909268  0.31484541  0.71940995    -0.70500
O639        O  0.31899292  0.31438130  0.78354899    -0.70100
O640        O  0.25166496  0.24476641  0.78116635    -0.61300
O641        O  0.32054237  0.24629561  0.78241365    -0.73800
O642        O  0.25097086  0.31255816  0.78278066    -0.72600
Cu643      Cu  0.28572582  0.28012152  0.71613801     1.04600
Cu644      Cu  0.28561581  0.27931221  0.78471862     1.04300
C645        C  0.24015057  0.32358565  0.75077725     0.93700
C646        C  0.33186232  0.23641505  0.75035778     0.92800
C647        C  0.24036694  0.23492419  0.74877814     0.85000
C648        C  0.32898944  0.32619086  0.75165908     0.91200
C649        C  0.11421208  0.38464598  0.85338427    -0.25900
C650        C  0.14362232  0.38940322  0.83448626    -0.14000
C651        C  0.16954392  0.40153693  0.85729183     0.36700
C652        C  0.16771008  0.40041357  0.89765961    -0.25300
C653        C  0.13992786  0.38974747  0.91670446    -0.14600
C654        C  0.11168108  0.38600643  0.89385825     0.37800
N655        N  0.08035442  0.38540957  0.91103749    -0.88800
H656        H  0.09256864  0.38144067  0.83635200     0.18900
H657        H  0.18816353  0.40878758  0.91437621     0.18900
N658        N  0.19640876  0.41833872  0.84112318    -0.87900
H659        H  0.06242906  0.38208157  0.89010511     0.36200
H660        H  0.07615370  0.40772106  0.92348408     0.41300
H661        H  0.18837321  0.43445899  0.82004583     0.41000
H662        H  0.21284346  0.40239601  0.82952843     0.35800
C663        C  0.15363130  0.41475991  0.60503297    -0.25900
C664        C  0.14649670  0.38643326  0.58457290    -0.14000
C665        C  0.14615846  0.35724155  0.60616946     0.36700
C666        C  0.14571043  0.35843949  0.64661471    -0.25300
C667        C  0.14692870  0.38753818  0.66685120    -0.14600
C668        C  0.15518156  0.41538035  0.64560874     0.39000
N669        N  0.16635575  0.44380491  0.66498718    -0.88800
H670        H  0.15940960  0.43646996  0.58942634     0.18900
H671        H  0.14560884  0.33602569  0.66236513     0.18900
N672        N  0.14806534  0.32591783  0.58901131    -0.87900
H673        H  0.17144240  0.46204522  0.64515395     0.36200
H674        H  0.18804090  0.43819533  0.67877779     0.41300
H675        H  0.15033030  0.32647534  0.55912456     0.41000
H676        H  0.12709879  0.31325551  0.59561631     0.35800
C677        C  0.39805342  0.45649566  0.89742093    -0.25900
C678        C  0.38009594  0.43326137  0.91748285    -0.14000
C679        C  0.35495758  0.41851481  0.89562041     0.36700
C680        C  0.35746258  0.41744583  0.85524425    -0.25300
C681        C  0.38234767  0.43334313  0.83551616    -0.14600
C682        C  0.39819742  0.45768988  0.85683985     0.37800
N683        N  0.41032294  0.48586268  0.83811101    -0.88800
H684        H  0.40977567  0.47565262  0.91301604     0.18900
H685        H  0.33784052  0.40677602  0.83921231     0.18900
N686        N  0.32465343  0.40897699  0.91188625    -0.87900
H687        H  0.43343905  0.49048703  0.84875364     0.36200
H688        H  0.39610248  0.50516714  0.84658220     0.41300
H689        H  0.32340944  0.41285770  0.94153974     0.41000
H690        H  0.32064314  0.38470480  0.90625628     0.35800
C691        C  0.35374819  0.43105539  0.60519624    -0.25900
C692        C  0.38296792  0.42792836  0.58543628    -0.14000
C693        C  0.40945500  0.41649745  0.60699528     0.36700
C694        C  0.40879731  0.41756035  0.64748044    -0.25300
C695        C  0.38119276  0.42729616  0.66756455    -0.14600
C696        C  0.35218966  0.42973377  0.64565091     0.37800
N697        N  0.32071469  0.42830559  0.66246991    -0.88800
H698        H  0.33146708  0.43283349  0.58911157     0.18900
H699        H  0.42980819  0.40939963  0.66313272     0.18900
N700        N  0.43618791  0.40184021  0.58823110    -0.87900
H701        H  0.30906122  0.44999897  0.65708230     0.36200
H702        H  0.32125646  0.42434755  0.69216653     0.41300
H703        H  0.43746745  0.37801537  0.59751371     0.41000
H704        H  0.45718767  0.41339692  0.59747480     0.35800
C705        C  0.31028193  0.04666328  0.72740215    -0.25900
C706        C  0.30786773  0.02049186  0.75274878    -0.14000
C707        C  0.28147585  0.01838919  0.77808441     0.36700
C708        C  0.25824967  0.04256278  0.77764977    -0.25300
C709        C  0.26035304  0.06852654  0.75200725    -0.14600
C710        C  0.28694860  0.07091297  0.72699490     0.37800
N711        N  0.29040374  0.09809757  0.70177487    -0.88800
H712        H  0.33070352  0.04831097  0.70826805     0.18900
H713        H  0.23766578  0.04053345  0.79646492     0.18900
N714        N  0.27772822  0.49116230  0.80320921    -0.87900
H715        H  0.31125423  0.09615769  0.68528717     0.36200
H716        H  0.29327701  0.11840166  0.71912043     0.41300
H717        H  0.27418672  0.47099380  0.78580102     0.41000
H718        H  0.25717723  0.49343560  0.82016448     0.35800
C719        C  0.24761955  0.03281438  0.97811405    -0.25900
C720        C  0.25161009  0.06088216  0.99983763    -0.14000
C721        C  0.27983585  0.06523608  0.52215006     0.36700
C722        C  0.30321330  0.04109115  0.52278586    -0.25300
C723        C  0.29924581  0.01312761  0.00091251    -0.14600
C724        C  0.27104804  0.00871911  0.97871085     0.37800
N725        N  0.26608428  0.47946036  0.95762024    -0.88800
H726        H  0.22580024  0.02947534  0.96135368     0.18900
H727        H  0.32501452  0.04432624  0.53961650     0.18900
N728        N  0.28494696  0.09445029  0.54327747    -0.87900
H729        H  0.24405109  0.47989297  0.94294924     0.36200
H730        H  0.26471095  0.46077462  0.97773665     0.41300
H731        H  0.28655468  0.11311387  0.52315638     0.41000
H732        H  0.30688740  0.09385258  0.55814471     0.35800
C733        C  0.14191353  0.15579874  0.89400449    -0.25900
C734        C  0.16989137  0.14720644  0.91455699    -0.14000
C735        C  0.19883473  0.14581266  0.89339326     0.36700
C736        C  0.19784773  0.14554488  0.85292297    -0.25300
C737        C  0.16877754  0.14771292  0.83224170    -0.14600
C738        C  0.14138391  0.15757016  0.85351679     0.37800
N739        N  0.11430417  0.17304123  0.83580808    -0.88800
H740        H  0.12048698  0.16257682  0.90948056     0.18900
H741        H  0.22040917  0.14506995  0.83771205     0.18900
N742        N  0.22950004  0.14630293  0.91244388    -0.87900
H743        H  0.09999000  0.15669281  0.82093690     0.36200
H744        H  0.12243021  0.19087276  0.81695172     0.41300
H745        H  0.24183394  0.16682104  0.90337944     0.41000
H746        H  0.24267631  0.12662756  0.90285418     0.35800
C747        C  0.17175160  0.11629699  0.60211963    -0.25900
C748        C  0.16753437  0.14545057  0.58225645    -0.14000
C749        C  0.15682527  0.17196191  0.60438210     0.36700
C750        C  0.15817572  0.17055548  0.64479203    -0.25300
C751        C  0.16824343  0.14283770  0.66463868    -0.14600
C752        C  0.17208790  0.11444760  0.64264831     0.37800
N753        N  0.17596136  0.08367605  0.66090016    -0.88800
H754        H  0.17334954  0.09425115  0.58599793     0.18900
H755        H  0.15047052  0.19137306  0.66082469     0.18900
N756        N  0.14173049  0.19947262  0.58741370    -0.87900
H757        H  0.18037871  0.06582516  0.64048060     0.36200
H758        H  0.15453522  0.07737264  0.67431246     0.41300
H759        H  0.12403942  0.19197101  0.56782665     0.41000
H760        H  0.15852111  0.21389654  0.57356347     0.35800
C761        C  0.03748036  0.30197214  0.72976311    -0.25900
C762        C  0.06694985  0.29692357  0.74868471    -0.14000
C763        C  0.07302330  0.26663124  0.76593038     0.36700
C764        C  0.04886039  0.24297017  0.76529451    -0.25300
C765        C  0.01942438  0.24814044  0.74637409    -0.14600
C766        C  0.01386369  0.27801652  0.72824603     0.37800
N767        N  0.48411716  0.28507828  0.70916300    -0.88800
H768        H  0.03272021  0.32498117  0.71638266     0.18900
H769        H  0.05330236  0.22002469  0.77899918     0.18900
N770        N  0.10342657  0.25869604  0.78336978    -0.87900
H771        H  0.46536971  0.28074957  0.72845210     0.36200
H772        H  0.48147689  0.26990070  0.68542027     0.41300
H773        H  0.12017156  0.27707654  0.77982913     0.41000
H774        H  0.11268661  0.23913463  0.76832229     0.35800
C775        C  0.00482102  0.28422005  0.52528926    -0.25900
C776        C  0.01028582  0.25628889  0.50383045    -0.14000
C777        C  0.03959072  0.25288612  0.98371827     0.36700
C778        C  0.06168426  0.27827359  0.98381209    -0.25300
C779        C  0.05605484  0.30637274  0.50480989    -0.14600
C780        C  0.02736305  0.30940830  0.52586318     0.37800
N781        N  0.02085980  0.33837987  0.54670970    -0.88800
H782        H  0.48246059  0.28659130  0.54083022     0.18900
H783        H  0.08396152  0.27572763  0.96814295     0.18900
N784        N  0.04814188  0.22393520  0.96384677    -0.87900
H785        H  0.49868655  0.33678732  0.06062208     0.36200
H786        H  0.01892174  0.35694393  0.02650111     0.41300
H787        H  0.03151505  0.20569126  0.46889123     0.41000
H788        H  0.06966021  0.21570020  0.47601047     0.35800
C789        C  0.45811999  0.17204107  0.85449052    -0.25900
C790        C  0.42932223  0.16855750  0.83349914    -0.14000
C791        C  0.40157362  0.15917111  0.85470838     0.36700
C792        C  0.40181772  0.16146512  0.89510527    -0.25300
C793        C  0.42966305  0.16990574  0.91597369    -0.14600
C794        C  0.45890415  0.17186966  0.89513355     0.37800
N795        N  0.48944712  0.17331297  0.91475209    -0.88800
H796        H  0.48061755  0.17314474  0.83925247     0.18900
H797        H  0.38014737  0.15490053  0.91035437     0.18900
N798        N  0.37353597  0.14495019  0.83719655    -0.87900
H799        H  0.00817203  0.17665373  0.89515829     0.36200
H800        H  0.49363869  0.15134587  0.92817885     0.41300
H801        H  0.37679910  0.13901804  0.80828638     0.41000
H802        H  0.35443850  0.16098511  0.83947018     0.35800
C803        C  0.41620586  0.14469441  0.64543912    -0.25900
C804        C  0.42521341  0.17258669  0.66578799    -0.14000
C805        C  0.42729845  0.20164331  0.64412664     0.36700
C806        C  0.42769159  0.20027353  0.60371661    -0.25300
C807        C  0.42450370  0.17125985  0.58359257    -0.14600
C808        C  0.41466057  0.14411498  0.60494673     0.37800
N809        N  0.40143457  0.11651527  0.58599939    -0.88800
H810        H  0.40907427  0.12327409  0.66085332     0.18900
H811        H  0.42916076  0.22262253  0.58794233     0.18900
N812        N  0.42827499  0.23304819  0.66126327    -0.87900
H813        H  0.41455282  0.09643268  0.59475682     0.36200
H814        H  0.37786171  0.11340624  0.59557505     0.41300
H815        H  0.42495664  0.23247047  0.69097481     0.41000
H816        H  0.40870264  0.24592194  0.65038142     0.35800
C817        C  0.42664960  0.67129348  0.03944026     0.30400
C818        C  0.42813620  0.67171774  0.46029879     0.30400
C819        C  0.39452680  0.67880197  0.01922708    -0.05800
C820        C  0.44993028  0.69560993  0.02092388    -0.06600
C821        C  0.43730970  0.64002482  0.02031790    -0.06400
C822        C  0.39518972  0.67935471  0.47856015    -0.05800
C823        C  0.44996945  0.69656405  0.48067346    -0.06500
C824        C  0.43732854  0.63996479  0.48006362    -0.06400
C825        C  0.37152801  0.70075879  0.46719917    -0.31800
N826        N  0.35596000  0.71181819  0.49874640     0.14700
C827        C  0.37023569  0.69912821  0.03047991    -0.31800
H828        H  0.36567302  0.70682010  0.05979094     0.16600
C829        C  0.47124905  0.72044500  0.47010047    -0.30800
N830        N  0.48571245  0.73203321  0.00246378     0.13400
C831        C  0.47287739  0.71718342  0.03361099    -0.30800
C832        C  0.45482793  0.61369149  0.46862919    -0.31100
N833        N  0.46660904  0.59880864  0.00054583     0.13900
H834        H  0.46101409  0.60754022  0.43924359     0.16500
C835        C  0.45680031  0.61515046  0.03208801    -0.31100
H836        H  0.46543207  0.61090576  0.06123163     0.16500
H837        H  0.48044692  0.72141741  0.06314117     0.16500
H838        H  0.36813093  0.71011382  0.43825611     0.16600
H839        H  0.47633303  0.72866022  0.44108890     0.16500
C840        C  0.42994347  0.67076753  0.28910882     0.30400
C841        C  0.42837690  0.67115670  0.20997953     0.30400
C842        C  0.39993740  0.68538183  0.27013642    -0.05800
C843        C  0.45693901  0.69042383  0.26911089    -0.06600
C844        C  0.43304793  0.63769426  0.26976197    -0.06400
C845        C  0.39879246  0.68465568  0.23017755    -0.05800
C846        C  0.45652083  0.68976494  0.22874444    -0.06500
C847        C  0.43253641  0.63780980  0.22894599    -0.06400
C848        C  0.37238101  0.70209886  0.21854882    -0.31800
N849        N  0.35796816  0.71408125  0.25040119     0.14700
C850        C  0.37486160  0.70442070  0.28202499    -0.31800
H851        H  0.37036823  0.71224853  0.31128745     0.16600
C852        C  0.48098227  0.70946852  0.21605323    -0.30800
N853        N  0.49503723  0.72353777  0.24721194     0.13400
C854        C  0.48061415  0.71221956  0.27963068    -0.30800
C855        C  0.45260794  0.61308380  0.21780500    -0.31100
N856        N  0.46389391  0.59748498  0.24935659     0.13900
H857        H  0.46158564  0.60933023  0.18888408     0.16500
C858        C  0.45265076  0.61260168  0.28099187    -0.31100
H859        H  0.46139764  0.60837596  0.31009807     0.16500
H860        H  0.48592320  0.72078966  0.30846361     0.16500
H861        H  0.36554828  0.70762922  0.18903887     0.16600
H862        H  0.48731235  0.71417853  0.18630241     0.16500
C863        C  0.16930840  0.64539422  0.45886951     0.30400
C864        C  0.16918945  0.64554034  0.03785160     0.30400
C865        C  0.13662941  0.63768446  0.47771328    -0.05800
C866        C  0.19103790  0.62025214  0.47855164    -0.06600
C867        C  0.17967676  0.67704768  0.47814255    -0.06400
C868        C  0.13665362  0.63801154  0.01849112    -0.05800
C869        C  0.19182314  0.62117606  0.01876914    -0.06500
C870        C  0.18035945  0.67674190  0.01862873    -0.06400
C871        C  0.11420850  0.61549279  0.03009050    -0.31800
N872        N  0.10059489  0.60162100  0.49873688     0.14700
C873        C  0.11440693  0.61442942  0.46691593    -0.31800
H874        H  0.11139794  0.60485516  0.43805554     0.16600
C875        C  0.21492432  0.59976341  0.03076687    -0.30800
N876        N  0.22676132  0.58467023  0.49934662     0.13400
C877        C  0.21164054  0.59622625  0.46740170    -0.30800
C878        C  0.20430928  0.69794756  0.02958621    -0.31100
N879        N  0.21607122  0.71288717  0.49796604     0.13900
H880        H  0.21410134  0.70052773  0.05849753     0.16500
C881        C  0.20166417  0.70000147  0.46644478    -0.31100
H882        H  0.20861187  0.70507745  0.43699227     0.16500
H883        H  0.21588931  0.58803413  0.43826951     0.16500
H884        H  0.11096058  0.60703629  0.05941605     0.16600
H885        H  0.22299917  0.59554157  0.06010206     0.16500
C886        C  0.16987194  0.64350871  0.20899795     0.30400
C887        C  0.16940940  0.64506422  0.28794383     0.30400
C888        C  0.13803745  0.63350384  0.22812197    -0.05800
C889        C  0.19509700  0.62237723  0.22936913    -0.06600
C890        C  0.17773066  0.67639977  0.22733513    -0.06400
C891        C  0.13829056  0.63334726  0.26852172    -0.05800
C892        C  0.19432116  0.62244204  0.26963568    -0.06500
C893        C  0.17705231  0.67719763  0.26807841    -0.06400
C894        C  0.11673781  0.60978861  0.27968488    -0.31800
N895        N  0.10147762  0.59788070  0.24817305     0.14700
C896        C  0.11449535  0.61191764  0.21655862    -0.31800
H897        H  0.10901046  0.60505725  0.18709723     0.16600
C898        C  0.21835140  0.60221856  0.28214392    -0.30800
N899        N  0.23471269  0.59152703  0.25095381     0.13400
C900        C  0.22099649  0.60408399  0.21867678    -0.30800
C901        C  0.19982546  0.69957874  0.27950239    -0.31100
N902        N  0.21415592  0.71235957  0.24811375     0.13900
H903        H  0.20798391  0.70350355  0.30889299     0.16500
C904        C  0.20146550  0.69803443  0.21642451    -0.31100
H905        H  0.21129868  0.70037155  0.18765895     0.16500
H906        H  0.22917078  0.59991083  0.18954446     0.16500
H907        H  0.11400263  0.60047780  0.30872134     0.16600
H908        H  0.22382987  0.59565143  0.31170773     0.16500
C909        C  0.38306753  0.93107501  0.46179184     0.30400
C910        C  0.38351786  0.93028688  0.04127540     0.30400
C911        C  0.41545558  0.94046574  0.48155070    -0.05800
C912        C  0.35939826  0.95350469  0.48179678    -0.06600
C913        C  0.37627921  0.89830677  0.48109362    -0.06400
C914        C  0.41524374  0.94075541  0.02201220    -0.05800
C915        C  0.35962489  0.95348619  0.02194004    -0.06500
C916        C  0.37585093  0.89833196  0.02138739    -0.06400
C917        C  0.44286298  0.95641559  0.03401183    -0.31800
N918        N  0.46077233  0.96379473  0.50257588     0.14700
C919        C  0.44462670  0.95363131  0.47058665    -0.31800
H920        H  0.45301156  0.95743209  0.44144549     0.16600
C921        C  0.33800972  0.97658276  0.03333574    -0.30800
N922        N  0.32401697  0.98931503  0.50129410     0.13400
C923        C  0.33722425  0.97571573  0.46965608    -0.30800
C924        C  0.36110318  0.87036034  0.03304841    -0.31100
N925        N  0.35340249  0.85291126  0.50123013     0.13900
H926        H  0.35361017  0.86471843  0.06219645     0.16500
C927        C  0.36367740  0.86915937  0.46956521    -0.31100
H928        H  0.35975926  0.86133937  0.44019613     0.16500
H929        H  0.33131941  0.98178678  0.44001446     0.16500
H930        H  0.44833817  0.96407524  0.06319633     0.16600
H931        H  0.33269368  0.98380102  0.06260530     0.16500
C932        C  0.38276379  0.92998423  0.21180003     0.30400
C933        C  0.38423110  0.93085188  0.29122960     0.30400
C934        C  0.41622510  0.93510689  0.23049975    -0.05800
C935        C  0.36344801  0.95676879  0.23115366    -0.06600
C936        C  0.37096984  0.89959029  0.23208477    -0.06400
C937        C  0.41731882  0.93460863  0.27121043    -0.05800
C938        C  0.36395644  0.95664988  0.27128675    -0.06500
C939        C  0.37168898  0.89960843  0.27226929    -0.06400
C940        C  0.44601071  0.94896600  0.28186840    -0.31800
N941        N  0.46070178  0.96061973  0.24994100     0.14700
C942        C  0.44252468  0.95282569  0.21873239    -0.31800
H943        H  0.44630572  0.96228548  0.18995126     0.16600
C944        C  0.34449427  0.98095129  0.28356843    -0.30800
N945        N  0.33190629  0.99585129  0.25209626     0.13400
C946        C  0.34401703  0.98188211  0.21989452    -0.30800
C947        C  0.35910454  0.87033875  0.28376141    -0.31100
N948        N  0.34971487  0.85374186  0.25187664     0.13900
H949        H  0.35573826  0.86193595  0.31303948     0.16500
C950        C  0.35743479  0.87117854  0.22015935    -0.31100
H951        H  0.35174081  0.86459163  0.19063850     0.16500
H952        H  0.33829022  0.98895864  0.19057440     0.16500
H953        H  0.45465113  0.95281318  0.31094323     0.16600
H954        H  0.33956006  0.98710546  0.31330405     0.16500
C955        C  0.14057027  0.88795560  0.46110908     0.30400
C956        C  0.14316694  0.88787097  0.04032680     0.30400
C957        C  0.13592764  0.92087843  0.48054555    -0.05800
C958        C  0.11576801  0.86642154  0.48173609    -0.06600
C959        C  0.17214685  0.87594525  0.47948163    -0.06400
C960        C  0.13672474  0.92082038  0.02132933    -0.05800
C961        C  0.11608863  0.86763059  0.02196974    -0.06500
C962        C  0.17352646  0.87643807  0.01958930    -0.06400
C963        C  0.11602092  0.94493953  0.03267382    -0.31800
N964        N  0.10445942  0.96044416  0.50117759     0.14700
C965        C  0.11618906  0.94585028  0.46942984    -0.31800
H966        H  0.10817492  0.95080362  0.44021872     0.16600
C967        C  0.09239358  0.84710394  0.03488147    -0.30800
N968        N  0.07946370  0.83179039  0.50388488     0.13400
C969        C  0.09431371  0.84257264  0.47160046    -0.30800
C970        C  0.20048876  0.85961406  0.03080121    -0.31100
N971        N  0.21505270  0.84806335  0.49879302     0.13900
H972        H  0.20735486  0.85375950  0.06020797     0.16500
C973        C  0.19779755  0.85763528  0.46732072    -0.31100
H974        H  0.20212863  0.84977931  0.43802710     0.16500
H975        H  0.09028827  0.83289945  0.44298780     0.16500
H976        H  0.10706810  0.94846626  0.06164682     0.16600
H977        H  0.08608291  0.84241590  0.06463161     0.16500
C978        C  0.14417051  0.88732676  0.29017116     0.30400
C979        C  0.14472342  0.88728574  0.21109373     0.30400
C980        C  0.17678374  0.88012577  0.27151457    -0.05800
C981        C  0.12261832  0.86168550  0.27048279    -0.06600
C982        C  0.13325094  0.91850379  0.27047169    -0.06400
C983        C  0.17723706  0.88091515  0.23087482    -0.05800
C984        C  0.12252457  0.86205197  0.23013261    -0.06500
C985        C  0.13303632  0.91831236  0.23016741    -0.06400
C986        C  0.20151264  0.86064899  0.21939027    -0.31800
N987        N  0.21555736  0.84752485  0.25094706     0.14700
C988        C  0.19978889  0.85798508  0.28246633    -0.31800
H989        H  0.20274705  0.84799342  0.31118365     0.16600
C990        C  0.10153449  0.83831326  0.21809112    -0.30800
N991        N  0.09017410  0.82265255  0.24961665     0.13400
C992        C  0.10271816  0.83675636  0.28175582    -0.30800
C993        C  0.11140946  0.94150917  0.21845740    -0.31100
N994        N  0.10003638  0.95683298  0.24997140     0.13900
H995        H  0.10284299  0.94540365  0.18921164     0.16500
C996        C  0.11250114  0.94240638  0.28185269    -0.31100
H997        H  0.10500637  0.94715910  0.31117825     0.16500
H998        H  0.09763162  0.82924951  0.31104304     0.16500
H999        H  0.20617729  0.85323472  0.19000399     0.16600
H1000       H  0.09478124  0.83267359  0.18862687     0.16500
O1001       O  0.06868252  0.56394498  0.03181720    -0.72500
O1002       O  0.50026594  0.49504600  0.03417315    -0.73500
O1003       O  0.06931487  0.99533089  0.03327452    -0.62100
O1004       O  0.00082192  0.56298279  0.03287115    -0.70500
O1005       O  0.99991478  0.56230574  0.46873014    -0.70100
O1006       O  0.06850469  0.99492112  0.46916683    -0.61300
O1007       O  0.49972380  0.49444803  0.47007303    -0.73800
O1008       O  0.06776203  0.56336574  0.46770876    -0.72600
Cu1009     Cu  0.03491319  0.52919293  0.03528717     1.04600
Cu1010     Cu  0.03403554  0.52857022  0.46673988     1.04300
C1011       C  0.07831446  0.57518183  0.49943116     0.93700
C1012       C  0.48833532  0.48476356  0.50231945     0.92800
C1013       C  0.07986877  0.98452455  0.50122942     0.85000
C1014       C  0.98983052  0.57356425  0.50072407     0.91200
O1015       O  0.06589109  0.99295376  0.21748937    -0.72500
O1016       O  0.99833316  0.56195101  0.21720705    -0.73500
O1017       O  0.06669118  0.56167249  0.21649245    -0.62100
O1018       O  0.49759460  0.49380032  0.21770129    -0.70500
O1019       O  0.49817851  0.49382473  0.28182519    -0.70100
O1020       O  0.06731910  0.56181056  0.28060151    -0.61300
O1021       O  0.99894259  0.56203220  0.28132707    -0.73800
O1022       O  0.06636951  0.99326583  0.28160875    -0.72600
Cu1023     Cu  0.03216953  0.52755368  0.21499369     1.04600
Cu1024     Cu  0.03279064  0.52773163  0.28354612     1.04300
C1025       C  0.07652722  0.98196230  0.24966612     0.93700
C1026       C  0.48793832  0.57285504  0.24929016     0.92800
C1027       C  0.07768219  0.57275431  0.24839826     0.85000
C1028       C  0.48674808  0.48331849  0.24984229     0.91200
O1029       O  0.25236624  0.74676439  0.03026540    -0.72500
O1030       O  0.32062810  0.81494437  0.03227140    -0.73500
O1031       O  0.25218520  0.81474164  0.03094095    -0.62100
O1032       O  0.32073509  0.74658271  0.03098488    -0.70500
O1033       O  0.32089718  0.74738704  0.46688646    -0.70100
O1034       O  0.25213301  0.81513971  0.46682943    -0.61300
O1035       O  0.32072889  0.81574441  0.46816193    -0.73800
O1036       O  0.25234756  0.74714257  0.46612985    -0.72600
Cu1037     Cu  0.28654795  0.78071271  0.03333587     1.04600
Cu1038     Cu  0.28663029  0.78136863  0.46478762     1.04300
C1039       C  0.24132572  0.73639056  0.49806516     0.93700
C1040       C  0.33115885  0.82649072  0.50052970     0.92800
C1041       C  0.24096170  0.82533079  0.49884127     0.85000
C1042       C  0.33160678  0.73618473  0.49887679     0.91200
O1043       O  0.25119974  0.81354594  0.21864341    -0.72500
O1044       O  0.32049772  0.74680780  0.21827309    -0.73500
O1045       O  0.25172832  0.74569544  0.21705440    -0.62100
O1046       O  0.31909252  0.81484964  0.21940882    -0.70500
O1047       O  0.31899763  0.81438226  0.28354787    -0.70100
O1048       O  0.25166483  0.74477034  0.28116938    -0.61300
O1049       O  0.32054212  0.74629786  0.28240779    -0.73800
O1050       O  0.25097543  0.81256689  0.28278280    -0.72600
Cu1051     Cu  0.28572443  0.78012597  0.21613774     1.04600
Cu1052     Cu  0.28561770  0.77931608  0.28471838     1.04300
C1053       C  0.24015554  0.82359579  0.25077958     0.93700
C1054       C  0.33186151  0.73641980  0.25035030     0.92800
C1055       C  0.24036800  0.73492484  0.24878194     0.85000
C1056       C  0.32899277  0.82619268  0.25165786     0.91200
C1057       C  0.11421687  0.88463953  0.35338397    -0.25900
C1058       C  0.14362611  0.88940516  0.33448716    -0.14000
C1059       C  0.16954244  0.90154893  0.35729372     0.36700
C1060       C  0.16770933  0.90042081  0.39766172    -0.25300
C1061       C  0.13992923  0.88974674  0.41670530    -0.14600
C1062       C  0.11168419  0.88600020  0.39385767     0.37800
N1063       N  0.08035698  0.88540124  0.41103490    -0.88800
H1064       H  0.09257472  0.88142928  0.33635072     0.18900
H1065       H  0.18815988  0.90880018  0.41437972     0.18900
N1066       N  0.19639647  0.91836910  0.34112650    -0.87900
H1067       H  0.06243268  0.88207224  0.39010144     0.36200
H1068       H  0.07615479  0.90771245  0.42348165     0.41300
H1069       H  0.18834656  0.93449905  0.32006783     0.41000
H1070       H  0.21283178  0.90243998  0.32950647     0.35800
C1071       C  0.15363078  0.91476889  0.10503530    -0.25900
C1072       C  0.14649901  0.88644210  0.08457363    -0.14000
C1073       C  0.14616361  0.85724965  0.10616834     0.36700
C1074       C  0.14571736  0.85844546  0.14661333    -0.25300
C1075       C  0.14693198  0.88754295  0.16685202    -0.14600
C1076       C  0.15518075  0.91538755  0.14561146     0.39000
N1077       N  0.16635077  0.94381265  0.16499228    -0.88800
H1078       H  0.15940723  0.93648008  0.08943001     0.18900
H1079       H  0.14562039  0.83603071  0.16236152     0.18900
N1080       N  0.14807024  0.82592671  0.08900800    -0.87900
H1081       H  0.17143508  0.96205461  0.14516039     0.36200
H1082       H  0.18803642  0.93820522  0.17878308     0.41300
H1083       H  0.15033095  0.82648476  0.05912095     0.41000
H1084       H  0.12710483  0.81326340  0.09561588     0.35800
C1085       C  0.39806246  0.95649607  0.39742471    -0.25900
C1086       C  0.38010503  0.93326228  0.41748789    -0.14000
C1087       C  0.35496666  0.91851565  0.39562547     0.36700
C1088       C  0.35747109  0.91744571  0.35524866    -0.25300
C1089       C  0.38235371  0.93334522  0.33551822    -0.14600
C1090       C  0.39820355  0.95769189  0.35684293     0.37800
N1091       N  0.41032453  0.98586713  0.33811525    -0.88800
H1092       H  0.40978550  0.97565270  0.41301952     0.18900
H1093       H  0.33784903  0.90677484  0.33921802     0.18900
N1094       N  0.32466213  0.90897975  0.41189182    -0.87900
H1095       H  0.43344099  0.99049330  0.34875553     0.36200
H1096       H  0.39610253  0.00516939  0.34659001     0.41300
H1097       H  0.32341721  0.91286357  0.44154464     0.41000
H1098       H  0.32065131  0.88470726  0.40626473     0.35800
C1099       C  0.35375496  0.93106543  0.10519339    -0.25900
C1100       C  0.38297383  0.92793497  0.08543311    -0.14000
C1101       C  0.40946033  0.91650132  0.10699191     0.36700
C1102       C  0.40880265  0.91756248  0.14747742    -0.25300
C1103       C  0.38119823  0.92729805  0.16756229    -0.14600
C1104       C  0.35219602  0.92974101  0.14564788     0.37800
N1105       N  0.32072071  0.92831648  0.16246596    -0.88800
H1106       H  0.33147416  0.93284713  0.08910896     0.18900
H1107       H  0.42981334  0.90940077  0.16312938     0.18900
N1108       N  0.43619239  0.90184283  0.08822721    -0.87900
H1109       H  0.30907094  0.95001232  0.15708105     0.36200
H1110       H  0.32126175  0.92435527  0.19216208     0.41300
H1111       H  0.43746989  0.87801743  0.09750813     0.41000
H1112       H  0.45719296  0.91339759  0.09747180     0.35800
C1113       C  0.31027903  0.54665951  0.22739366    -0.25900
C1114       C  0.30786574  0.52048702  0.25273878    -0.14000
C1115       C  0.28147385  0.51838141  0.27807365     0.36700
C1116       C  0.25824767  0.54255453  0.27764228    -0.25300
C1117       C  0.26034975  0.56851929  0.25200129    -0.14600
C1118       C  0.28694467  0.57090811  0.22698828     0.37800
N1119       N  0.29039848  0.59809425  0.20177036    -0.88800
H1120       H  0.33070066  0.54830897  0.20825979     0.18900
H1121       H  0.23766426  0.54052354  0.29645796     0.18900
N1122       N  0.27774981  0.99117019  0.30321819    -0.87900
H1123       H  0.31124863  0.59615592  0.18528179     0.36200
H1124       H  0.29327158  0.61839740  0.21911754     0.41300
H1125       H  0.27420877  0.97099803  0.28581604     0.41000
H1126       H  0.25720166  0.99344303  0.32017843     0.35800
C1127       C  0.24761424  0.53280289  0.47813071    -0.25900
C1128       C  0.25160827  0.56087580  0.49984268    -0.14000
C1129       C  0.27983749  0.56523467  0.02213693     0.36700
C1130       C  0.30321366  0.54108881  0.02277297    -0.25300
C1131       C  0.29924300  0.51312252  0.50092559    -0.14600
C1132       C  0.27104251  0.50870845  0.47873132     0.37800
N1133       N  0.26610455  0.97947846  0.45759516    -0.88800
H1134       H  0.22579253  0.52945965  0.46137609     0.18900
H1135       H  0.32502043  0.54432768  0.03959207     0.18900
N1136       N  0.28495655  0.59445585  0.04324762    -0.87900
H1137       H  0.24407556  0.97991426  0.44291520     0.36200
H1138       H  0.26472556  0.96078840  0.47770515     0.41300
H1139       H  0.28655765  0.61311262  0.02311657     0.41000
H1140       H  0.30690246  0.59386259  0.05810342     0.35800
C1141       C  0.14191326  0.65578434  0.39400303    -0.25900
C1142       C  0.16989062  0.64719039  0.41455494    -0.14000
C1143       C  0.19883387  0.64579345  0.39339147     0.36700
C1144       C  0.19784710  0.64552903  0.35292153    -0.25300
C1145       C  0.16877729  0.64770073  0.33224076    -0.14600
C1146       C  0.14138368  0.65755711  0.35351609     0.37800
N1147       N  0.11430561  0.67303215  0.33580904    -0.88800
H1148       H  0.12048737  0.66256451  0.40947900     0.18900
H1149       H  0.22040856  0.64505387  0.33771063     0.18900
N1150       N  0.22949921  0.64627740  0.41244200    -0.87900
H1151       H  0.09998807  0.65668612  0.32093862     0.36200
H1152       H  0.12243369  0.69086311  0.31695340     0.41300
H1153       H  0.24183648  0.66679401  0.40337950     0.41000
H1154       H  0.24267190  0.62660031  0.40285038     0.35800
C1155       C  0.17175065  0.61629716  0.10211841    -0.25900
C1156       C  0.16753500  0.64545107  0.08225539    -0.14000
C1157       C  0.15682837  0.67196318  0.10438201     0.36700
C1158       C  0.15817709  0.67055546  0.14479248    -0.25300
C1159       C  0.16824311  0.64283674  0.16463848    -0.14600
C1160       C  0.17208675  0.61444710  0.14264708     0.37800
N1161       N  0.17595877  0.58367497  0.16089799    -0.88800
H1162       H  0.17334812  0.59425149  0.08599639     0.18900
H1163       H  0.15047317  0.69137307  0.16082609     0.18900
N1164       N  0.14173855  0.69947662  0.08741384    -0.87900
H1165       H  0.18037073  0.56582338  0.14047764     0.36200
H1166       H  0.15453399  0.57737447  0.17431535     0.41300
H1167       H  0.12405075  0.69197843  0.06782057     0.41000
H1168       H  0.15853321  0.71390056  0.07357063     0.35800
C1169       C  0.03752038  0.80194482  0.22970198    -0.25900
C1170       C  0.06696662  0.79691074  0.24868363    -0.14000
C1171       C  0.07301175  0.76663401  0.26598519     0.36700
C1172       C  0.04884305  0.74297826  0.26534362    -0.25300
C1173       C  0.01942998  0.74813420  0.24636394    -0.14600
C1174       C  0.01389930  0.77799330  0.22817950     0.37800
N1175       N  0.48416563  0.78504671  0.20901979    -0.88800
H1176       H  0.03278021  0.82494105  0.21627896     0.18900
H1177       H  0.05326389  0.72004623  0.27909121     0.18900
N1178       N  0.10339324  0.75870632  0.28348554    -0.87900
H1179       H  0.46538966  0.78073326  0.22827356     0.36200
H1180       H  0.48155933  0.76985450  0.18528579     0.41300
H1181       H  0.12015082  0.77707406  0.27993756     0.41000
H1182       H  0.11266124  0.73912408  0.26848468     0.35800
C1183       C  0.00483049  0.78420570  0.02532434    -0.25900
C1184       C  0.01029362  0.75628212  0.00385041    -0.14000
C1185       C  0.03959052  0.75288785  0.48373279     0.36700
C1186       C  0.06168270  0.77827653  0.48382494    -0.25300
C1187       C  0.05605239  0.80637636  0.00482821    -0.14600
C1188       C  0.02736582  0.80940020  0.02589478     0.37800
N1189       N  0.02085802  0.83836811  0.04674637    -0.88800
H1190       H  0.48244822  0.78658298  0.04083654     0.18900
H1191       H  0.08396020  0.77573067  0.46815628     0.18900
N1192       N  0.04814548  0.72393430  0.46386928    -0.87900
H1193       H  0.49868527  0.83677136  0.56067279     0.36200
H1194       H  0.01892034  0.85694517  0.52652657     0.41300
H1195       H  0.03152036  0.70570099  0.96887298     0.41000
H1196       H  0.06966588  0.71571412  0.97597861     0.35800
C1197       C  0.45811139  0.67205745  0.35448222    -0.25900
C1198       C  0.42931494  0.66856723  0.33349027    -0.14000
C1199       C  0.40156625  0.65918067  0.35470006     0.36700
C1200       C  0.40181140  0.66147142  0.39509782    -0.25300
C1201       C  0.42965688  0.66991165  0.41596698    -0.14600
C1202       C  0.45889604  0.67188365  0.39512515     0.37800
N1203       N  0.48943903  0.67332613  0.41474264    -0.88800
H1204       H  0.48060907  0.67316334  0.33924483     0.18900
H1205       H  0.38014169  0.65490458  0.41034694     0.18900
N1206       N  0.37352686  0.64496326  0.33718783    -0.87900
H1207       H  0.00817842  0.67663962  0.39515310     0.36200
H1208       H  0.49363989  0.65134972  0.42814304     0.41300
H1209       H  0.37678959  0.63902897  0.30827819     0.41000
H1210       H  0.35443148  0.66100081  0.33946043     0.35800
C1211       C  0.41620461  0.64468567  0.14543150    -0.25900
C1212       C  0.42520717  0.67258069  0.16577814    -0.14000
C1213       C  0.42728439  0.70163732  0.14411503     0.36700
C1214       C  0.42767082  0.70026668  0.10370507    -0.25300
C1215       C  0.42448892  0.67125159  0.08358313    -0.14600
C1216       C  0.41465563  0.64410452  0.10493948     0.37800
N1217       N  0.40143436  0.61650105  0.08599533    -0.88800
H1218       H  0.40907872  0.62326426  0.16084720     0.18900
H1219       H  0.42913463  0.72261531  0.08792900     0.18900
N1220       N  0.42826109  0.73304306  0.16124948    -0.87900
H1221       H  0.41455881  0.59642200  0.09475105     0.36200
H1222       H  0.37786344  0.61338623  0.09557520     0.41300
H1223       H  0.42495379  0.73246677  0.19096283     0.41000
H1224       H  0.40868320  0.74591309  0.15037578     0.35800
C1225       C  0.42665036  0.67129126  0.53944220     0.30400
C1226       C  0.42813653  0.67171611  0.96029796     0.30400
C1227       C  0.39452769  0.67880090  0.51922988    -0.05800
C1228       C  0.44993136  0.69560794  0.52092671    -0.06600
C1229       C  0.43730912  0.64002328  0.52031716    -0.06400
C1230       C  0.39518946  0.67935437  0.97855752    -0.05800
C1231       C  0.44996959  0.69656350  0.98067070    -0.06500
C1232       C  0.43732842  0.63996405  0.98006475    -0.06400
C1233       C  0.37152811  0.70075871  0.96719474    -0.31800
N1234       N  0.35595955  0.71181943  0.99874102     0.14700
C1235       C  0.37023663  0.69912638  0.53048452    -0.31800
H1236       H  0.36567425  0.70681733  0.55979595     0.16600
C1237       C  0.47124983  0.72044352  0.97009613    -0.30800
N1238       N  0.48571400  0.73203145  0.50246832     0.13400
C1239       C  0.47287985  0.71717971  0.53361477    -0.30800
C1240       C  0.45482796  0.61369047  0.96863172    -0.31100
N1241       N  0.46660680  0.59880702  0.50054281     0.13900
H1242       H  0.46101259  0.60753715  0.93924626     0.16500
C1243       C  0.45679701  0.61514673  0.53208602    -0.31100
H1244       H  0.46542710  0.61089947  0.56122981     0.16500
H1245       H  0.48045065  0.72141135  0.56314498     0.16500
H1246       H  0.36813170  0.71011286  0.93825116     0.16600
H1247       H  0.47633559  0.72865598  0.94108393     0.16500
C1248       C  0.42994204  0.67076508  0.78911185     0.30400
C1249       C  0.42837269  0.67115479  0.70998296     0.30400
C1250       C  0.39993488  0.68537971  0.77014151    -0.05800
C1251       C  0.45693719  0.69042163  0.76911326    -0.06600
C1252       C  0.43304519  0.63769212  0.76976460    -0.06400
C1253       C  0.39878875  0.68465362  0.73018263    -0.05800
C1254       C  0.45651737  0.68976311  0.72874703    -0.06500
C1255       C  0.43253242  0.63780779  0.72894886    -0.06400
C1256       C  0.37237604  0.70209523  0.71855512    -0.31800
N1257       N  0.35796350  0.71407741  0.75040781     0.14700
C1258       C  0.37485804  0.70441731  0.78203117    -0.31800
H1259       H  0.37036497  0.71224492  0.81129385     0.16600
C1260       C  0.48098029  0.70946463  0.71605495    -0.30800
N1261       N  0.49503768  0.72353359  0.74721276     0.13400
C1262       C  0.48061514  0.71221506  0.77963217    -0.30800
C1263       C  0.45260296  0.61308126  0.71780712    -0.31100
N1264       N  0.46388929  0.59748218  0.74935841     0.13900
H1265       H  0.46158010  0.60932772  0.68888600     0.16500
C1266       C  0.45264700  0.61259879  0.78099405    -0.31100
H1267       H  0.46139438  0.60837276  0.81009998     0.16500
H1268       H  0.48592695  0.72078285  0.80846540     0.16500
H1269       H  0.36554246  0.70762522  0.68904534     0.16600
H1270       H  0.48731145  0.71417069  0.68630374     0.16500
C1271       C  0.16930959  0.64539719  0.95887049     0.30400
C1272       C  0.16918913  0.64553824  0.53785036     0.30400
C1273       C  0.13663127  0.63768360  0.97771372    -0.05800
C1274       C  0.19104164  0.62025738  0.97855271    -0.06600
C1275       C  0.17967451  0.67705153  0.97814402    -0.06400
C1276       C  0.13665244  0.63801245  0.51849089    -0.05800
C1277       C  0.19182012  0.62117169  0.51876792    -0.06500
C1278       C  0.18036158  0.67673841  0.51862688    -0.06400
C1279       C  0.11420750  0.61549399  0.53009094    -0.31800
N1280       N  0.10059627  0.60161967  0.99873605     0.14700
C1281       C  0.11440958  0.61442786  0.96691557    -0.31800
H1282       H  0.11140106  0.60485392  0.93805492     0.16600
C1283       C  0.21492324  0.59976141  0.53076577    -0.30800
N1284       N  0.22676210  0.58467231  0.99934727     0.13400
C1285       C  0.21164319  0.59623074  0.96740244    -0.30800
C1286       C  0.20431022  0.69794492  0.52958481    -0.31100
N1287       N  0.21607024  0.71288973  0.99796741     0.13900
H1288       H  0.21410103  0.70052624  0.55849661     0.16500
C1289       C  0.20166240  0.70000480  0.96644642    -0.31100
H1290       H  0.20861040  0.70508033  0.93699388     0.16500
H1291       H  0.21589118  0.58803846  0.93827020     0.16500
H1292       H  0.11096097  0.60703670  0.55941642     0.16600
H1293       H  0.22300037  0.59554233  0.56010060     0.16500
C1294       C  0.16987268  0.64351138  0.70899678     0.30400
C1295       C  0.16940855  0.64506720  0.78794312     0.30400
C1296       C  0.13803934  0.63350262  0.72812036    -0.05800
C1297       C  0.19510028  0.62238347  0.72936870    -0.06600
C1298       C  0.17772678  0.67640343  0.72733375    -0.06400
C1299       C  0.13829129  0.63334713  0.76852015    -0.05800
C1300       C  0.19432304  0.62244782  0.76963518    -0.06500
C1301       C  0.17704809  0.67720129  0.76807738    -0.06400
C1302       C  0.11673895  0.60978845  0.77968342    -0.31800
N1303       N  0.10148089  0.59787849  0.74817123     0.14700
C1304       C  0.11449916  0.61191467  0.71655669    -0.31800
H1305       H  0.10901550  0.60505322  0.68709533     0.16600
C1306       C  0.21835320  0.60222477  0.78214411    -0.30800
N1307       N  0.23471655  0.59153472  0.75095490     0.13400
C1308       C  0.22100154  0.60409208  0.71867734    -0.30800
C1309       C  0.19982053  0.69958304  0.77950118    -0.31100
N1310       N  0.21415079  0.71236404  0.74811258     0.13900
H1311       H  0.20797964  0.70350717  0.80889164     0.16500
C1312       C  0.20146065  0.69803903  0.71642327    -0.31100
H1313       H  0.21129449  0.70037578  0.68765799     0.16500
H1314       H  0.22917674  0.59991913  0.68954536     0.16500
H1315       H  0.11400235  0.60047923  0.80872045     0.16600
H1316       H  0.22382924  0.59565557  0.81170786     0.16500
C1317       C  0.38306771  0.93107592  0.96178727     0.30400
C1318       C  0.38351702  0.93028517  0.54128104     0.30400
C1319       C  0.41545740  0.94046303  0.98154463    -0.05800
C1320       C  0.35940098  0.95350833  0.98179118    -0.06600
C1321       C  0.37627585  0.89830886  0.98108879    -0.06400
C1322       C  0.41524144  0.94075843  0.52201840    -0.05800
C1323       C  0.35962163  0.95348158  0.52194591    -0.06500
C1324       C  0.37585437  0.89832946  0.52139259    -0.06400
C1325       C  0.44285976  0.95642012  0.53401858    -0.31800
N1326       N  0.46077519  0.96379074  0.00256911     0.14700
C1327       C  0.44462874  0.95362831  0.97057989    -0.31800
H1328       H  0.45301241  0.95743088  0.94143852     0.16600
C1329       C  0.33800796  0.97657913  0.53334275    -0.30800
N1330       N  0.32401725  0.98931661  0.00128662     0.13400
C1331       C  0.33722476  0.97571693  0.96964919    -0.30800
C1332       C  0.36110586  0.87035805  0.53305343    -0.31100
N1333       N  0.35340017  0.85291340  0.00122504     0.13900
H1334       H  0.35361200  0.86471664  0.56220131     0.16500
C1335       C  0.36367494  0.86916131  0.96956009    -0.31100
H1336       H  0.35975761  0.86134088  0.94019097     0.16500
H1337       H  0.33131777  0.98178522  0.94000732     0.16500
H1338       H  0.44833474  0.96407971  0.56320316     0.16600
H1339       H  0.33269285  0.98379741  0.56261259     0.16500
C1340       C  0.38276215  0.92998531  0.71180431     0.30400
C1341       C  0.38422947  0.93085161  0.79123236     0.30400
C1342       C  0.41622331  0.93510841  0.73050372    -0.05800
C1343       C  0.36344510  0.95676908  0.73115858    -0.06600
C1344       C  0.37096912  0.89959047  0.73208799    -0.06400
C1345       C  0.41731722  0.93460958  0.77121369    -0.05800
C1346       C  0.36395341  0.95664903  0.77129133    -0.06500
C1347       C  0.37168785  0.89960811  0.77227225    -0.06400
C1348       C  0.44601078  0.94896395  0.78187172    -0.31800
N1349       N  0.46070222  0.96061747  0.74994427     0.14700
C1350       C  0.44252415  0.95282499  0.71873597    -0.31800
H1351       H  0.44630548  0.96228476  0.68995492     0.16600
C1352       C  0.34448859  0.98094788  0.78357486    -0.30800
N1353       N  0.33190030  0.99584863  0.75210363     0.13400
C1354       C  0.34401199  0.98188136  0.71990110    -0.30800
C1355       C  0.35910258  0.87033865  0.78376396    -0.31100
N1356       N  0.34971387  0.85374176  0.75187876     0.13900
H1357       H  0.35573493  0.86193616  0.81304194     0.16500
C1358       C  0.35743444  0.87117868  0.72016187    -0.31100
H1359       H  0.35174098  0.86459199  0.69064084     0.16500
H1360       H  0.33828493  0.98895886  0.69058141     0.16500
H1361       H  0.45465180  0.95281003  0.81094660     0.16600
H1362       H  0.33955360  0.98710038  0.81331088     0.16500
C1363       C  0.14056758  0.88795617  0.96110966     0.30400
C1364       C  0.14316887  0.88786823  0.54032622     0.30400
C1365       C  0.13592641  0.92087970  0.98054462    -0.05800
C1366       C  0.11576452  0.86642409  0.98173789    -0.06600
C1367       C  0.17214387  0.87594514  0.97948255    -0.06400
C1368       C  0.13672543  0.92081786  0.52133010    -0.05800
C1369       C  0.11609168  0.86762726  0.52196795    -0.06500
C1370       C  0.17352909  0.87643727  0.51958857    -0.06400
C1371       C  0.11602120  0.94493642  0.53267547    -0.31800
N1372       N  0.10445868  0.96044614  0.00117539     0.14700
C1373       C  0.11618774  0.94585123  0.96942807    -0.31800
H1374       H  0.10817317  0.95080366  0.94021692     0.16600
C1375       C  0.09239652  0.84710045  0.53487878    -0.30800
N1376       N  0.07946029  0.83179359  0.00388795     0.13400
C1377       C  0.09430978  0.84257561  0.97160311    -0.30800
C1378       C  0.20049110  0.85961290  0.53080015    -0.31100
N1379       N  0.21505033  0.84806419  0.99879424     0.13900
H1380       H  0.20735674  0.85375755  0.56020680     0.16500
C1381       C  0.19779496  0.85763568  0.96732197    -0.31100
H1382       H  0.20212639  0.84977979  0.93802840     0.16500
H1383       H  0.09028446  0.83290184  0.94299073     0.16500
H1384       H  0.10706798  0.94846209  0.56164850     0.16600
H1385       H  0.08608450  0.84241295  0.56462864     0.16500
C1386       C  0.14416732  0.88732459  0.79017098     0.30400
C1387       C  0.14471849  0.88728287  0.71109324     0.30400
C1388       C  0.17677963  0.88012153  0.77151298    -0.05800
C1389       C  0.12261303  0.86168494  0.77048346    -0.06600
C1390       C  0.13324959  0.91850232  0.77047140    -0.06400
C1391       C  0.17723206  0.88091106  0.73087340    -0.05800
C1392       C  0.12251854  0.86205088  0.73013319    -0.06500
C1393       C  0.13303356  0.91831015  0.73016697    -0.06400
C1394       C  0.20150880  0.86064701  0.71938720    -0.31800
N1395       N  0.21555477  0.84752336  0.75094340     0.14700
C1396       C  0.19978558  0.85798141  0.78246333    -0.31800
H1397       H  0.20274448  0.84798899  0.81118016     0.16600
C1398       C  0.10152633  0.83831396  0.71809278    -0.30800
N1399       N  0.09016534  0.82265496  0.74961913     0.13400
C1400       C  0.10271114  0.83675778  0.78175770    -0.30800
C1401       C  0.11140542  0.94150573  0.71845762    -0.31100
N1402       N  0.10003371  0.95683042  0.74997153     0.13900
H1403       H  0.10283717  0.94539872  0.68921225     0.16500
C1404       C  0.11250037  0.94240528  0.78185264    -0.31100
H1405       H  0.10500700  0.94715897  0.81117853     0.16500
H1406       H  0.09762500  0.82925118  0.81104512     0.16500
H1407       H  0.20617378  0.85323391  0.69000054     0.16600
H1408       H  0.09477248  0.83267400  0.68862877     0.16500
O1409       O  0.06868307  0.56394491  0.53181802    -0.72500
O1410       O  0.50026594  0.49504765  0.53417423    -0.73500
O1411       O  0.06931570  0.99532904  0.53327708    -0.62100
O1412       O  0.00082302  0.56298200  0.53287094    -0.70500
O1413       O  0.99991184  0.56230442  0.96873038    -0.70100
O1414       O  0.06850388  0.99492276  0.96916427    -0.61300
O1415       O  0.49972421  0.49444846  0.97007190    -0.73800
O1416       O  0.06775980  0.56336628  0.96770804    -0.72600
Cu1417     Cu  0.03491465  0.52919213  0.53528630     1.04600
Cu1418     Cu  0.03403266  0.52857003  0.96674082     1.04300
C1419       C  0.07831388  0.57518171  0.99943023     0.93700
C1420       C  0.48833584  0.48476263  0.00231764     0.92800
C1421       C  0.07986796  0.98452636  0.00122691     0.85000
C1422       C  0.98982829  0.57356357  0.00072407     0.91200
O1423       O  0.06588891  0.99295112  0.71748915    -0.72500
O1424       O  0.99833654  0.56195292  0.71720583    -0.73500
O1425       O  0.06669444  0.56167054  0.71649101    -0.62100
O1426       O  0.49759328  0.49379907  0.71770327    -0.70500
O1427       O  0.49817816  0.49382325  0.78182709    -0.70100
O1428       O  0.06732176  0.56180963  0.78060013    -0.61300
O1429       O  0.99894540  0.56203434  0.78132585    -0.73800
O1430       O  0.06636698  0.99326342  0.78160856    -0.72600
Cu1431     Cu  0.03217141  0.52755386  0.71499311     1.04600
Cu1432     Cu  0.03279213  0.52773244  0.78354557     1.04300
C1433       C  0.07652459  0.98195960  0.74966608     0.93700
C1434       C  0.48793469  0.57285333  0.74929165     0.92800
C1435       C  0.07768542  0.57275242  0.74839671     0.85000
C1436       C  0.48674760  0.48331657  0.74984450     0.91200
O1437       O  0.25236562  0.74676267  0.53026560    -0.72500
O1438       O  0.32062882  0.81494259  0.53227601    -0.73500
O1439       O  0.25218589  0.81474004  0.53094083    -0.62100
O1440       O  0.32073468  0.74658050  0.53099043    -0.70500
O1441       O  0.32089605  0.74738863  0.96688090    -0.70100
O1442       O  0.25213033  0.81514100  0.96682954    -0.61300
O1443       O  0.32072649  0.81574649  0.96815724    -0.73800
O1444       O  0.25234616  0.74714418  0.96612958    -0.72600
Cu1445     Cu  0.28654786  0.78071087  0.53333852     1.04600
Cu1446     Cu  0.28662826  0.78137034  0.96478487     1.04300
C1447       C  0.24132529  0.73639238  0.99806549     0.93700
C1448       C  0.33115711  0.82649264  0.00052480     0.92800
C1449       C  0.24095979  0.82533204  0.99884185     0.85000
C1450       C  0.33160645  0.73618646  0.99887106     0.91200
O1451       O  0.25120052  0.81354741  0.71863997    -0.72500
O1452       O  0.32049515  0.74680524  0.71827796    -0.73500
O1453       O  0.25172553  0.74569748  0.71705374    -0.62100
O1454       O  0.31909375  0.81484818  0.71940973    -0.70500
O1455       O  0.31899541  0.81438244  0.78354874    -0.70100
O1456       O  0.25166117  0.74477232  0.78116873    -0.61300
O1457       O  0.32053851  0.74629718  0.78241262    -0.73800
O1458       O  0.25097361  0.81256737  0.78277936    -0.72600
Cu1459     Cu  0.28572391  0.78012577  0.71613802     1.04600
Cu1460     Cu  0.28561488  0.77931671  0.78471864     1.04300
C1461       C  0.24015461  0.82359621  0.75077581     0.93700
C1462       C  0.33185777  0.73641733  0.75035592     0.92800
C1463       C  0.24036407  0.73492773  0.74878108     0.85000
C1464       C  0.32899216  0.82619219  0.75165912     0.91200
C1465       C  0.11421338  0.88463967  0.85338435    -0.25900
C1466       C  0.14362302  0.88940287  0.83448721    -0.14000
C1467       C  0.16954042  0.90154423  0.85729372     0.36700
C1468       C  0.16770689  0.90041770  0.89766169    -0.25300
C1469       C  0.13992619  0.88974589  0.91670570    -0.14600
C1470       C  0.11168084  0.88600044  0.89385818     0.37800
N1471       N  0.08035361  0.88540242  0.91103553    -0.88800
H1472       H  0.09257088  0.88143101  0.83635129     0.18900
H1473       H  0.18815794  0.90879623  0.91437928     0.18900
N1474       N  0.19639667  0.91836060  0.84112630    -0.87900
H1475       H  0.06242904  0.88207523  0.89010202     0.36200
H1476       H  0.07615249  0.90771325  0.92348376     0.41300
H1477       H  0.18834957  0.93448917  0.82006459     0.41000
H1478       H  0.21283157  0.90242892  0.82951061     0.35800
C1479       C  0.15363115  0.91476513  0.60503529    -0.25900
C1480       C  0.14649997  0.88643859  0.58457314    -0.14000
C1481       C  0.14616249  0.85724616  0.60616775     0.36700
C1482       C  0.14571256  0.85844212  0.64661284    -0.25300
C1483       C  0.14692704  0.88753974  0.66685153    -0.14600
C1484       C  0.15517786  0.91538405  0.64561147     0.39000
N1485       N  0.16634610  0.94380948  0.66499299    -0.88800
H1486       H  0.15940905  0.93647612  0.58943043     0.18900
H1487       H  0.14561317  0.83602744  0.66236126     0.18900
N1488       N  0.14807070  0.82592333  0.58900741    -0.87900
H1489       H  0.17143167  0.96205136  0.64516149     0.36200
H1490       H  0.18803069  0.93820247  0.67878647     0.41300
H1491       H  0.15033441  0.82648189  0.55912063     0.41000
H1492       H  0.12710464  0.81325999  0.59561203     0.35800
C1493       C  0.39806086  0.95649741  0.89742303    -0.25900
C1494       C  0.38010397  0.93326309  0.91748528    -0.14000
C1495       C  0.35496409  0.91851766  0.89562446     0.36700
C1496       C  0.35746800  0.91744758  0.85524833    -0.25300
C1497       C  0.38235208  0.93334531  0.83551899    -0.14600
C1498       C  0.39820220  0.95769250  0.85684206     0.37800
N1499       N  0.41032417  0.98586691  0.83811341    -0.88800
H1500       H  0.40978409  0.97565392  0.91301796     0.18900
H1501       H  0.33784546  0.90677766  0.83921748     0.18900
N1502       N  0.32465928  0.90898348  0.91189169    -0.87900
H1503       H  0.43344060  0.99049280  0.84875396     0.36200
H1504       H  0.39610255  0.00516981  0.84658696     0.41300
H1505       H  0.32341480  0.91286774  0.94154447     0.41000
H1506       H  0.32064702  0.88471111  0.90626517     0.35800
C1507       C  0.35375371  0.93106257  0.60519885    -0.25900
C1508       C  0.38297283  0.92793326  0.58543870    -0.14000
C1509       C  0.40946007  0.91650177  0.60699773     0.36700
C1510       C  0.40880197  0.91756319  0.64748307    -0.25300
C1511       C  0.38119722  0.92729884  0.66756728    -0.14600
C1512       C  0.35219492  0.92973994  0.64565325     0.37800
N1513       N  0.32071975  0.92831507  0.66247175    -0.88800
H1514       H  0.33147271  0.93284249  0.58911447     0.18900
H1515       H  0.42981274  0.90940199  0.66313526     0.18900
N1516       N  0.43619387  0.90184606  0.58823341    -0.87900
H1517       H  0.30906942  0.95001044  0.65708603     0.36200
H1518       H  0.32126073  0.92435457  0.69216794     0.41300
H1519       H  0.43747407  0.87802094  0.59751481     0.41000
H1520       H  0.45719310  0.91340332  0.59747789     0.35800
C1521       C  0.31027924  0.54665923  0.72740000    -0.25900
C1522       C  0.30786145  0.52048658  0.75274420    -0.14000
C1523       C  0.28146813  0.51838372  0.77807713     0.36700
C1524       C  0.25824492  0.54255964  0.77764441    -0.25300
C1525       C  0.26035126  0.56852446  0.75200385    -0.14600
C1526       C  0.28694747  0.57091018  0.72699242     0.37800
N1527       N  0.29040465  0.59809478  0.70177278    -0.88800
H1528       H  0.33070202  0.54830641  0.70826767     0.18900
H1529       H  0.23766013  0.54053047  0.79645810     0.18900
N1530       N  0.27774100  0.99117100  0.80322270    -0.87900
H1531       H  0.31125450  0.59615307  0.68528424     0.36200
H1532       H  0.29328014  0.61839838  0.71911864     0.41300
H1533       H  0.27419975  0.97099960  0.78581938     0.41000
H1534       H  0.25719175  0.99344491  0.82018079     0.35800
C1535       C  0.24761019  0.53280340  0.97812782    -0.25900
C1536       C  0.25160634  0.56087491  0.99984236    -0.14000
C1537       C  0.27983892  0.56523890  0.52213755     0.36700
C1538       C  0.30321688  0.54109452  0.52277614    -0.25300
C1539       C  0.29923770  0.51311802  0.00092096    -0.14600
C1540       C  0.27103680  0.50870703  0.97872632     0.37800
N1541       N  0.26609948  0.97947546  0.95759744    -0.88800
H1542       H  0.22578831  0.52946284  0.96137275     0.18900
H1543       H  0.32502309  0.54433546  0.53959573     0.18900
N1544       N  0.28495534  0.59446160  0.54324619    -0.87900
H1545       H  0.24406852  0.97990964  0.94292171     0.36200
H1546       H  0.26472413  0.96078669  0.97770964     0.41300
H1547       H  0.28655461  0.61311763  0.52311389     0.41000
H1548       H  0.30690125  0.59387100  0.55810206     0.35800
C1549       C  0.14191453  0.65578987  0.89400412    -0.25900
C1550       C  0.16989154  0.64719384  0.91455559    -0.14000
C1551       C  0.19883432  0.64579593  0.89339131     0.36700
C1552       C  0.19784676  0.64553100  0.85292129    -0.25300
C1553       C  0.16877676  0.64770355  0.83224070    -0.14600
C1554       C  0.14138412  0.65756163  0.85351682     0.37800
N1555       N  0.11430513  0.67303493  0.83580972    -0.88800
H1556       H  0.12048930  0.66257109  0.90948081     0.18900
H1557       H  0.22040810  0.64505629  0.83771031     0.18900
N1558       N  0.22950004  0.64628125  0.91244090    -0.87900
H1559       H  0.09999013  0.65668800  0.82093723     0.36200
H1560       H  0.12243242  0.69086713  0.81695529     0.41300
H1561       H  0.24183643  0.66679816  0.90337757     0.41000
H1562       H  0.24267332  0.62660451  0.90284929     0.35800
C1563       C  0.17175416  0.61629719  0.60211840    -0.25900
C1564       C  0.16753545  0.64544992  0.58225394    -0.14000
C1565       C  0.15682673  0.67196182  0.60437917     0.36700
C1566       C  0.15817667  0.67055604  0.64478975    -0.25300
C1567       C  0.16824465  0.64283858  0.66463717    -0.14600
C1568       C  0.17209119  0.61444869  0.64264701     0.37800
N1569       N  0.17596653  0.58367760  0.66089928    -0.88800
H1570       H  0.17335220  0.59425085  0.58599787     0.18900
H1571       H  0.15047140  0.69137368  0.66082224     0.18900
N1572       N  0.14173378  0.69947290  0.58740937    -0.87900
H1573       H  0.18038619  0.56582683  0.64048033     0.36200
H1574       H  0.15454045  0.57737287  0.67431092     0.41300
H1575       H  0.12404390  0.69197170  0.56782047     0.41000
H1576       H  0.15852595  0.71389576  0.57356021     0.35800
C1577       C  0.03751011  0.80194837  0.72971046    -0.25900
C1578       C  0.06695813  0.79691341  0.74868745    -0.14000
C1579       C  0.07300654  0.76663539  0.76598360     0.36700
C1580       C  0.04883882  0.74297900  0.76534255    -0.25300
C1581       C  0.01942472  0.74813521  0.74636569    -0.14600
C1582       C  0.01389104  0.77799525  0.72818541     0.37800
N1583       N  0.48419011  0.78503038  0.70897504    -0.88800
H1584       H  0.03276796  0.82494563  0.71629102     0.18900
H1585       H  0.05326163  0.72004595  0.77908677     0.18900
N1586       N  0.10339064  0.75870697  0.78347681    -0.87900
H1587       H  0.46540613  0.78072718  0.72822069     0.36200
H1588       H  0.48159015  0.76983173  0.68524630     0.41300
H1589       H  0.12014716  0.77707556  0.77992788     0.41000
H1590       H  0.11265713  0.73912642  0.76847141     0.35800
C1591       C  0.00482532  0.78421312  0.52531238    -0.25900
C1592       C  0.01028908  0.75628614  0.50384517    -0.14000
C1593       C  0.03959155  0.75289020  0.98372870     0.36700
C1594       C  0.06168193  0.77828033  0.98382277    -0.25300
C1595       C  0.05605314  0.80637556  0.50482444    -0.14600
C1596       C  0.02736449  0.80940425  0.52588592     0.37800
N1597       N  0.02085981  0.83837270  0.54673790    -0.88800
H1598       H  0.48245564  0.78657399  0.54085650     0.18900
H1599       H  0.08395735  0.77573847  0.96814897     0.18900
N1600       N  0.04814445  0.72394221  0.96385210    -0.87900
H1601       H  0.49868200  0.83677817  0.06065720     0.36200
H1602       H  0.01891246  0.85693935  0.02653412     0.41300
H1603       H  0.03151853  0.70569578  0.46889094     0.41000
H1604       H  0.06966346  0.71570730  0.47600593     0.35800
C1605       C  0.45811324  0.67204933  0.85448327    -0.25900
C1606       C  0.42931563  0.66856256  0.83349249    -0.14000
C1607       C  0.40156727  0.65917561  0.85470219     0.36700
C1608       C  0.40181261  0.66146697  0.89509926    -0.25300
C1609       C  0.42965836  0.66990717  0.91596742    -0.14600
C1610       C  0.45889818  0.67187578  0.89512620     0.37800
N1611       N  0.48944122  0.67331856  0.91474403    -0.88800
H1612       H  0.48061056  0.67315462  0.83924504     0.18900
H1613       H  0.38014280  0.65490084  0.91034853     0.18900
N1614       N  0.37352828  0.64495700  0.83719053    -0.87900
H1615       H  0.00817453  0.67665393  0.89514986     0.36200
H1616       H  0.49363944  0.65134517  0.92815273     0.41300
H1617       H  0.37679085  0.63902268  0.80828090     0.41000
H1618       H  0.35443231  0.66099379  0.83946330     0.35800
C1619       C  0.41619954  0.64468391  0.64543404    -0.25900
C1620       C  0.42520247  0.67257861  0.66578131    -0.14000
C1621       C  0.42728221  0.70163485  0.64411810     0.36700
C1622       C  0.42767160  0.70026384  0.60370807    -0.25300
C1623       C  0.42448966  0.67124883  0.58358563    -0.14600
C1624       C  0.41465354  0.64410247  0.60494154     0.37800
N1625       N  0.40143251  0.61649951  0.58599619    -0.88800
H1626       H  0.40907193  0.62326298  0.66084956     0.18900
H1627       H  0.42913729  0.72261244  0.58793214     0.18900
N1628       N  0.42825877  0.73304056  0.66125264    -0.87900
H1629       H  0.41455530  0.59641993  0.59475381     0.36200
H1630       H  0.37786049  0.61338622  0.59557281     0.41300
H1631       H  0.42494875  0.73246430  0.69096553     0.41000
H1632       H  0.40868223  0.74591129  0.65037657     0.35800
C1633       C  0.92665834  0.17129786  0.03944887     0.30400
C1634       C  0.92813813  0.17171462  0.46030409     0.30400
C1635       C  0.89453270  0.17880137  0.01923952    -0.05800
C1636       C  0.94993501  0.19561540  0.02092640    -0.06600
C1637       C  0.93731882  0.14002959  0.02032674    -0.06400
C1638       C  0.89519115  0.17934947  0.47856593    -0.05800
C1639       C  0.94996832  0.19656752  0.48067014    -0.06500
C1640       C  0.93733670  0.13996676  0.48007482    -0.06400
C1641       C  0.87152994  0.20075406  0.46720375    -0.31800
N1642       N  0.85596365  0.21181712  0.49875013     0.14700
C1643       C  0.87024180  0.19912712  0.03049422    -0.31800
H1644       H  0.86568165  0.20682068  0.05980519     0.16600
C1645       C  0.97124859  0.22044462  0.47008744    -0.30800
N1646       N  0.98571990  0.23203237  0.00245511     0.13400
C1647       C  0.97288767  0.21718599  0.03360652    -0.30800
C1648       C  0.95482688  0.11368707  0.46864301    -0.31100
N1649       N  0.96660495  0.09880529  0.00055500     0.13900
H1650       H  0.96100559  0.10752813  0.43925741     0.16500
C1651       C  0.95680029  0.11514902  0.03209767    -0.31100
H1652       H  0.96543002  0.11090147  0.06124153     0.16500
H1653       H  0.98046366  0.22141940  0.06313448     0.16500
H1654       H  0.86813268  0.21010751  0.43826001     0.16600
H1655       H  0.97633395  0.22865084  0.44107255     0.16500
C1656       C  0.92994891  0.17076466  0.28911933     0.30400
C1657       C  0.92838304  0.17116268  0.20999024     0.30400
C1658       C  0.89994386  0.18538422  0.27014872    -0.05800
C1659       C  0.95694747  0.19041975  0.26912583    -0.06600
C1660       C  0.93305036  0.13769367  0.26976776    -0.06400
C1661       C  0.89879960  0.18466149  0.23018975    -0.05800
C1662       C  0.95652839  0.18976787  0.22875863    -0.06500
C1663       C  0.93253956  0.13781375  0.22895197    -0.06400
C1664       C  0.87238678  0.20210239  0.21856194    -0.31800
N1665       N  0.85797184  0.21408139  0.25041467     0.14700
C1666       C  0.87486541  0.20442008  0.28203845    -0.31800
H1667       H  0.87036993  0.21224499  0.31130155     0.16600
C1668       C  0.98098964  0.20947495  0.21607264    -0.30800
N1669       N  0.99504894  0.22353257  0.24723590     0.13400
C1670       C  0.98062652  0.21220950  0.27965204    -0.30800
C1671       C  0.95261008  0.11308834  0.21780733    -0.31100
N1672       N  0.96389575  0.09748669  0.24935678     0.13900
H1673       H  0.96158800  0.10933771  0.18888595     0.16500
C1674       C  0.95265214  0.11259962  0.28099413    -0.31100
H1675       H  0.96139890  0.10837088  0.31009978     0.16500
H1676       H  0.98593713  0.22077382  0.30848707     0.16500
H1677       H  0.86555412  0.20763334  0.18905211     0.16600
H1678       H  0.98731289  0.21420314  0.18632341     0.16500
C1679       C  0.66931378  0.14539881  0.45887327     0.30400
C1680       C  0.66919201  0.14553783  0.03785275     0.30400
C1681       C  0.63663528  0.13768639  0.47771663    -0.05800
C1682       C  0.69104467  0.12025745  0.47855417    -0.06600
C1683       C  0.67967970  0.17705162  0.47814880    -0.06400
C1684       C  0.63665573  0.13801381  0.01849290    -0.05800
C1685       C  0.69182279  0.12117160  0.01876911    -0.06500
C1686       C  0.68036412  0.17673814  0.01863125    -0.06400
C1687       C  0.61421000  0.11549684  0.03009290    -0.31800
N1688       N  0.60060014  0.10162346  0.49873916     0.14700
C1689       C  0.61441326  0.11443127  0.46691852    -0.31800
H1690       H  0.61140459  0.10485709  0.43805803     0.16600
C1691       C  0.71492508  0.09976008  0.03076584    -0.30800
N1692       N  0.72676408  0.08467050  0.49934650     0.13400
C1693       C  0.71164628  0.09623152  0.46740228    -0.30800
C1694       C  0.70431345  0.19794256  0.02959098    -0.31100
N1695       N  0.71607601  0.21288699  0.49797471     0.13900
H1696       H  0.71410480  0.20052192  0.05850276     0.16500
C1697       C  0.70166795  0.20000433  0.46645281    -0.31100
H1698       H  0.70861601  0.20508119  0.43700062     0.16500
H1699       H  0.71589550  0.08804181  0.43826923     0.16500
H1700       H  0.61096332  0.10703928  0.05941823     0.16600
H1701       H  0.72300050  0.09553866  0.06010081     0.16500
C1702       C  0.66987417  0.14351285  0.20899835     0.30400
C1703       C  0.66941129  0.14506786  0.28794470     0.30400
C1704       C  0.63804171  0.13350290  0.22812218    -0.05800
C1705       C  0.69510285  0.12238587  0.22936945    -0.06600
C1706       C  0.67772711  0.17640508  0.22733531    -0.06400
C1707       C  0.63829455  0.13334570  0.26852191    -0.05800
C1708       C  0.69432698  0.12245031  0.26963594    -0.06500
C1709       C  0.67704828  0.17720274  0.26807914    -0.06400
C1710       C  0.61674429  0.10978445  0.27968347    -0.31800
N1711       N  0.60148526  0.09787654  0.24817067     0.14700
C1712       C  0.61450142  0.11191582  0.21655709    -0.31800
H1713       H  0.60901589  0.10505747  0.18709518     0.16600
C1714       C  0.71835620  0.10222548  0.28214353    -0.30800
N1715       N  0.73471655  0.09153303  0.25095308     0.13400
C1716       C  0.72100117  0.10409146  0.21867644    -0.30800
C1717       C  0.69982046  0.19958450  0.27950314    -0.31100
N1718       N  0.71415222  0.21236412  0.24811497     0.13900
H1719       H  0.70797917  0.20350868  0.30889377     0.16500
C1720       C  0.70146179  0.19803995  0.21642535    -0.31100
H1721       H  0.71129647  0.20037591  0.18766038     0.16500
H1722       H  0.72917368  0.09991666  0.18954378     0.16500
H1723       H  0.61400920  0.10047278  0.30871956     0.16600
H1724       H  0.72383295  0.09565623  0.31170711     0.16500
C1725       C  0.88306137  0.43107162  0.46178392     0.30400
C1726       C  0.88351028  0.43027839  0.04127778     0.30400
C1727       C  0.91545030  0.44046205  0.48154096    -0.05800
C1728       C  0.85939266  0.45349994  0.48179032    -0.06600
C1729       C  0.87627440  0.39830306  0.48108388    -0.06400
C1730       C  0.91523257  0.44075638  0.02201429    -0.05800
C1731       C  0.85961140  0.45347212  0.02194484    -0.06500
C1732       C  0.87585214  0.39832278  0.02138803    -0.06400
C1733       C  0.94285234  0.45641529  0.03401460    -0.31800
N1734       N  0.96076866  0.46378853  0.50256529     0.14700
C1735       C  0.94462123  0.45362785  0.47057599    -0.31800
H1736       H  0.95300465  0.45743091  0.44143460     0.16600
C1737       C  0.83800011  0.47657064  0.03334451    -0.30800
N1738       N  0.82401365  0.48931059  0.50129002     0.13400
C1739       C  0.83721848  0.47571119  0.46965091    -0.30800
C1740       C  0.86110584  0.37035104  0.03304927    -0.31100
N1741       N  0.85340128  0.35290716  0.50122035     0.13900
H1742       H  0.85361376  0.36470881  0.06219762     0.16500
C1743       C  0.86367260  0.36915623  0.46955480    -0.31100
H1744       H  0.85975137  0.36133749  0.44018577     0.16500
H1745       H  0.83131215  0.48178271  0.44000983     0.16500
H1746       H  0.94832958  0.46407108  0.06320000     0.16600
H1747       H  0.83268800  0.48378968  0.06261491     0.16500
C1748       C  0.88275998  0.42998515  0.21180127     0.30400
C1749       C  0.88422608  0.43085206  0.29122947     0.30400
C1750       C  0.91622108  0.43510871  0.23050159    -0.05800
C1751       C  0.86344213  0.45676891  0.23115497    -0.06600
C1752       C  0.87096708  0.39959034  0.23208558    -0.06400
C1753       C  0.91731389  0.43461092  0.27121159    -0.05800
C1754       C  0.86394946  0.45664861  0.27128779    -0.06500
C1755       C  0.87168622  0.39960831  0.27226973    -0.06400
C1756       C  0.94600847  0.44896237  0.28187090    -0.31800
N1757       N  0.96070233  0.46061334  0.24994370     0.14700
C1758       C  0.94252469  0.45282147  0.21873439    -0.31800
H1759       H  0.94630839  0.46227940  0.18995291     0.16600
C1760       C  0.84448333  0.48094647  0.28357106    -0.30800
N1761       N  0.83189590  0.49584763  0.25209968     0.13400
C1762       C  0.84400864  0.48188107  0.21989720    -0.30800
C1763       C  0.85910196  0.37033909  0.28376275    -0.31100
N1764       N  0.84971218  0.35374203  0.25187852     0.13900
H1765       H  0.85573550  0.36193687  0.31304107     0.16500
C1766       C  0.85743136  0.37117861  0.22016077    -0.31100
H1767       H  0.85173636  0.36459169  0.19064021     0.16500
H1768       H  0.83828213  0.48895897  0.19057748     0.16500
H1769       H  0.95464827  0.45280910  0.31094615     0.16600
H1770       H  0.83954704  0.48709825  0.31330698     0.16500
C1771       C  0.64057620  0.38796005  0.46111011     0.30400
C1772       C  0.64316762  0.38786318  0.04032706     0.30400
C1773       C  0.63593237  0.42088177  0.48054807    -0.05800
C1774       C  0.61577319  0.36642510  0.48173357    -0.06600
C1775       C  0.67215214  0.37594902  0.47948430    -0.06400
C1776       C  0.63672257  0.42081352  0.02133313    -0.05800
C1777       C  0.61609284  0.36762209  0.02196472    -0.06500
C1778       C  0.67352954  0.37643431  0.01959101    -0.06400
C1779       C  0.61601485  0.44492966  0.03267786    -0.31800
N1780       N  0.60445842  0.46044331  0.50117828     0.14700
C1781       C  0.61619417  0.44585348  0.46943136    -0.31800
H1782       H  0.60818559  0.45081035  0.44021905     0.16600
C1783       C  0.59239614  0.34709576  0.03487125    -0.30800
N1784       N  0.57946322  0.33179827  0.50387585     0.13400
C1785       C  0.59431565  0.34258088  0.47159339    -0.30800
C1786       C  0.70048821  0.35960474  0.03080327    -0.31100
N1787       N  0.71505334  0.34806024  0.49879703     0.13900
H1788       H  0.70735074  0.35374561  0.06020987     0.16500
C1789       C  0.69780139  0.35763651  0.46732432    -0.31100
H1790       H  0.70213348  0.34978178  0.43803045     0.16500
H1791       H  0.59028903  0.33291161  0.44297898     0.16500
H1792       H  0.60705855  0.44845261  0.06165000     0.16600
H1793       H  0.58608180  0.34240667  0.06461996     0.16500
C1794       C  0.64417192  0.38732837  0.29017231     0.30400
C1795       C  0.64472285  0.38728621  0.21109469     0.30400
C1796       C  0.67678234  0.38011854  0.27151441    -0.05800
C1797       C  0.62261226  0.36169290  0.27048496    -0.06600
C1798       C  0.63326087  0.41850888  0.27047300    -0.06400
C1799       C  0.67723494  0.38090774  0.23087513    -0.05800
C1800       C  0.62251756  0.36205929  0.23013477    -0.06500
C1801       C  0.63304460  0.41831667  0.23016802    -0.06400
C1802       C  0.70150941  0.36064105  0.21938927    -0.31800
N1803       N  0.71555385  0.34751642  0.25094587     0.14700
C1804       C  0.69978518  0.35797566  0.28246545    -0.31800
H1805       H  0.70274307  0.34798324  0.31118244     0.16600
C1806       C  0.60152453  0.33832346  0.21809358    -0.30800
N1807       N  0.59016404  0.32266350  0.24961926     0.13400
C1808       C  0.60271001  0.33676554  0.28175850    -0.30800
C1809       C  0.61141520  0.44151176  0.21845960    -0.31100
N1810       N  0.60004310  0.45683619  0.24997359     0.13900
H1811       H  0.60284505  0.44540319  0.18921475     0.16500
C1812       C  0.61251087  0.44241146  0.28185421    -0.31100
H1813       H  0.60501644  0.44716389  0.31117999     0.16500
H1814       H  0.59762517  0.32925754  0.31104577     0.16500
H1815       H  0.70617486  0.35322832  0.19000258     0.16600
H1816       H  0.59477122  0.33268348  0.18862943     0.16500
O1817       O  0.56868632  0.06394937  0.03182058    -0.72500
O1818       O  0.00027026  0.99504851  0.03418205    -0.73500
O1819       O  0.56931086  0.49532583  0.03327479    -0.62100
O1820       O  0.50082616  0.06298528  0.03287689    -0.70500
O1821       O  0.49991538  0.06230693  0.46873669    -0.70100
O1822       O  0.56850247  0.49491673  0.46916320    -0.61300
O1823       O  0.99972759  0.99444881  0.47008124    -0.73800
O1824       O  0.56776258  0.06337197  0.46771157    -0.72600
Cu1825     Cu  0.53491911  0.02919636  0.03528968     1.04600
Cu1826     Cu  0.53403782  0.02857472  0.46674466     1.04300
C1827       C  0.57831812  0.07518593  0.49943366     0.93700
C1828       C  0.98834057  0.98476220  0.50232737     0.92800
C1829       C  0.57986584  0.48452190  0.50122713     0.85000
C1830       C  0.48983310  0.07356692  0.50073049     0.91200
O1831       O  0.56589278  0.49295260  0.21749214    -0.72500
O1832       O  0.49834012  0.06195525  0.21720197    -0.73500
O1833       O  0.56669830  0.06166991  0.21648838    -0.62100
O1834       O  0.99759299  0.99380579  0.21769799    -0.70500
O1835       O  0.99817945  0.99382897  0.28182193    -0.70100
O1836       O  0.56732543  0.06180771  0.28059752    -0.61300
O1837       O  0.49894994  0.06203670  0.28132203    -0.73800
O1838       O  0.56637076  0.49326449  0.28161147    -0.72600
Cu1839     Cu  0.53217341  0.02755451  0.21498962     1.04600
Cu1840     Cu  0.53279402  0.02773302  0.28354219     1.04300
C1841       C  0.57653024  0.48196230  0.24966882     0.93700
C1842       C  0.98794118  0.07285839  0.24928819     0.92800
C1843       C  0.57768948  0.07275082  0.24839461     0.85000
C1844       C  0.98674791  0.98332329  0.24983959     0.91200
O1845       O  0.75236913  0.24675885  0.03027292    -0.72500
O1846       O  0.82062779  0.31493971  0.03227594    -0.73500
O1847       O  0.75218544  0.31473473  0.03094405    -0.62100
O1848       O  0.82073731  0.24657919  0.03099799    -0.70500
O1849       O  0.82089970  0.24738439  0.46688790    -0.70100
O1850       O  0.75213156  0.31513470  0.46683211    -0.61300
O1851       O  0.82072666  0.31574073  0.46815594    -0.73800
O1852       O  0.75235142  0.24713912  0.46613674    -0.72600
Cu1853     Cu  0.78654909  0.28070771  0.03334322     1.04600
Cu1854     Cu  0.78663073  0.28136482  0.46478868     1.04300
C1855       C  0.74133081  0.23638869  0.49807306     0.93700
C1856       C  0.83115797  0.32648759  0.50052244     0.92800
C1857       C  0.74096183  0.32532695  0.49884439     0.85000
C1858       C  0.83161058  0.23618400  0.49887883     0.91200
O1859       O  0.75120160  0.31354242  0.21864359    -0.72500
O1860       O  0.82049985  0.24680444  0.21828372    -0.73500
O1861       O  0.75172973  0.24569433  0.21705736    -0.62100
O1862       O  0.81909395  0.31484634  0.21941227    -0.70500
O1863       O  0.81899544  0.31438284  0.28355134    -0.70100
O1864       O  0.75166488  0.24476891  0.28117240    -0.61300
O1865       O  0.82054323  0.24629785  0.28241840    -0.73800
O1866       O  0.75097377  0.31256271  0.28278303    -0.72600
Cu1867     Cu  0.78572653  0.28012292  0.21614207     1.04600
Cu1868     Cu  0.78561711  0.27931486  0.28472276     1.04300
C1869       C  0.74015452  0.32359045  0.25077913     0.93700
C1870       C  0.83186364  0.23641850  0.25036210     0.92800
C1871       C  0.74036740  0.23492531  0.24878441     0.85000
C1872       C  0.82899160  0.32619188  0.25166093     0.91200
C1873       C  0.61421895  0.38465078  0.35338619    -0.25900
C1874       C  0.64362931  0.38940710  0.33448838    -0.14000
C1875       C  0.66955047  0.40154203  0.35729395     0.36700
C1876       C  0.66771711  0.40041736  0.39766187    -0.25300
C1877       C  0.63993444  0.38975209  0.41670651    -0.14600
C1878       C  0.61168749  0.38601352  0.39385999     0.37800
N1879       N  0.58036043  0.38542139  0.41103844    -0.88800
H1880       H  0.59257576  0.38144491  0.33635357     0.18900
H1881       H  0.68817050  0.40879128  0.41437873     0.18900
N1882       N  0.69641190  0.41834955  0.34112562    -0.87900
H1883       H  0.56243498  0.38209724  0.39010532     0.36200
H1884       H  0.57616287  0.40773298  0.42348607     0.41300
H1885       H  0.68837173  0.43447317  0.32005458     0.41000
H1886       H  0.71284680  0.40241140  0.32952254     0.35800
C1887       C  0.65363344  0.41476083  0.10503373    -0.25900
C1888       C  0.64649757  0.38643407  0.08457423    -0.14000
C1889       C  0.64615827  0.35724279  0.10617109     0.36700
C1890       C  0.64571240  0.35844105  0.14661634    -0.25300
C1891       C  0.64693090  0.38753991  0.16685274    -0.14600
C1892       C  0.65518244  0.41538221  0.14560965     0.39000
N1893       N  0.66635359  0.44380812  0.16498767    -0.88800
H1894       H  0.65941242  0.43647048  0.08942665     0.18900
H1895       H  0.64561257  0.33602725  0.16236653     0.18900
N1896       N  0.64806191  0.32591890  0.08901291    -0.87900
H1897       H  0.67143912  0.46204849  0.14515412     0.36200
H1898       H  0.68803861  0.43820058  0.17877987     0.41300
H1899       H  0.65032655  0.32647598  0.05912614     0.41000
H1900       H  0.62709421  0.31325866  0.09561857     0.35800
C1901       C  0.89805326  0.45649623  0.39742088    -0.25900
C1902       C  0.88009680  0.43326079  0.41748186    -0.14000
C1903       C  0.85495757  0.41851542  0.39561984     0.36700
C1904       C  0.85746194  0.41744727  0.35524360    -0.25300
C1905       C  0.88234697  0.43334511  0.33551585    -0.14600
C1906       C  0.89819620  0.45769192  0.35684001     0.37800
N1907       N  0.91031948  0.48586617  0.33811228    -0.88800
H1908       H  0.90977528  0.47565295  0.41301675     0.18900
H1909       H  0.83783962  0.40677806  0.33921165     0.18900
N1910       N  0.82465314  0.40897896  0.41188617    -0.87900
H1911       H  0.93343557  0.49049143  0.34875426     0.36200
H1912       H  0.89609813  0.50516941  0.34658533     0.41300
H1913       H  0.82340925  0.41286013  0.44153963     0.41000
H1914       H  0.82064167  0.38470696  0.40625656     0.35800
C1915       C  0.85374803  0.43105590  0.10519697    -0.25900
C1916       C  0.88296645  0.42792564  0.08543553    -0.14000
C1917       C  0.90945378  0.41649409  0.10699381     0.36700
C1918       C  0.90879784  0.41755930  0.14747935    -0.25300
C1919       C  0.88119415  0.42729732  0.16756427    -0.14600
C1920       C  0.85219090  0.42973658  0.14565156     0.37800
N1921       N  0.82071629  0.42831302  0.16247180    -0.88800
H1922       H  0.83146631  0.43283425  0.08911375     0.18900
H1923       H  0.92980901  0.40939883  0.16313134     0.18900
N1924       N  0.93618491  0.40183445  0.08822855    -0.87900
H1925       H  0.80906596  0.45000822  0.15708488     0.36200
H1926       H  0.82125797  0.42435387  0.19216823     0.41300
H1927       H  0.93746365  0.37801002  0.09751295     0.41000
H1928       H  0.95718576  0.41339071  0.09746937     0.35800
C1929       C  0.81027775  0.04665649  0.22739468    -0.25900
C1930       C  0.80786444  0.02048747  0.25274486    -0.14000
C1931       C  0.78147206  0.01838474  0.27807920     0.36700
C1932       C  0.75824643  0.04255855  0.27764376    -0.25300
C1933       C  0.76035026  0.06852154  0.25199997    -0.14600
C1934       C  0.78694425  0.07090553  0.22698486     0.37800
N1935       N  0.79039814  0.09808709  0.20175977    -0.88800
H1936       H  0.83069907  0.04830299  0.20826002     0.18900
H1937       H  0.73766287  0.04053006  0.29645949     0.18900
N1938       N  0.77773206  0.49116413  0.30321024    -0.87900
H1939       H  0.81124658  0.09614430  0.18526891     0.36200
H1940       H  0.79327411  0.11839301  0.21910155     0.41300
H1941       H  0.77419166  0.47099499  0.28580291     0.41000
H1942       H  0.75718146  0.49343635  0.32016641     0.35800
C1943       C  0.74762150  0.03280843  0.47811490    -0.25900
C1944       C  0.75161082  0.06087553  0.49983956    -0.14000
C1945       C  0.77984022  0.06523805  0.02214276     0.36700
C1946       C  0.80321935  0.04109481  0.02277962    -0.25300
C1947       C  0.79924664  0.01312263  0.50091619    -0.14600
C1948       C  0.77105002  0.00871380  0.47871267     0.37800
N1949       N  0.76609232  0.47946873  0.45761230    -0.88800
H1950       H  0.72580291  0.02946925  0.46135320     0.18900
H1951       H  0.82502247  0.04433365  0.03960560     0.18900
N1952       N  0.78495187  0.09445645  0.04326161    -0.87900
H1953       H  0.74405938  0.47990206  0.44294095     0.36200
H1954       H  0.76472017  0.46078076  0.47772585     0.41300
H1955       H  0.78655386  0.11311679  0.02313542     0.41000
H1956       H  0.80689510  0.09386364  0.05812310     0.35800
C1957       C  0.64191763  0.15578886  0.39400649    -0.25900
C1958       C  0.66989579  0.14719670  0.41455806    -0.14000
C1959       C  0.69883848  0.14579988  0.39339322     0.36700
C1960       C  0.69785045  0.14553412  0.35292294    -0.25300
C1961       C  0.66877993  0.14770413  0.33224256    -0.14600
C1962       C  0.64138626  0.15755896  0.35351911     0.37800
N1963       N  0.61430364  0.17302604  0.33581202    -0.88800
H1964       H  0.62049156  0.16256760  0.40948298     0.18900
H1965       H  0.72041161  0.14505917  0.33771143     0.18900
N1966       N  0.72950440  0.14628493  0.41244253    -0.87900
H1967       H  0.59998892  0.15667462  0.32094630     0.36200
H1968       H  0.62242615  0.19085645  0.31695208     0.41300
H1969       H  0.74184093  0.16680175  0.40337910     0.41000
H1970       H  0.74267746  0.12660805  0.40285084     0.35800
C1971       C  0.67175554  0.11629699  0.10212073    -0.25900
C1972       C  0.66753787  0.14544967  0.08225608    -0.14000
C1973       C  0.65682970  0.17196223  0.10438075     0.36700
C1974       C  0.65817960  0.17055698  0.14479111    -0.25300
C1975       C  0.66824575  0.14283923  0.16463895    -0.14600
C1976       C  0.67209077  0.11444872  0.14264935     0.37800
N1977       N  0.67596303  0.08367737  0.16090205    -0.88800
H1978       H  0.67335361  0.09425060  0.08600029     0.18900
H1979       H  0.65047520  0.19137523  0.16082306     0.18900
N1980       N  0.64173695  0.19947336  0.08741073    -0.87900
H1981       H  0.68038462  0.06582670  0.14048366     0.36200
H1982       H  0.65453510  0.07737287  0.17430943     0.41300
H1983       H  0.62404781  0.19197242  0.06782073     0.41000
H1984       H  0.65852937  0.21389714  0.07356334     0.35800
C1985       C  0.53750795  0.30195545  0.22971690    -0.25900
C1986       C  0.56695952  0.29691959  0.24868535    -0.14000
C1987       C  0.57301403  0.26663844  0.26597057     0.36700
C1988       C  0.54884869  0.24297957  0.26532813    -0.25300
C1989       C  0.51943002  0.24813771  0.24636258    -0.14600
C1990       C  0.51389009  0.27800107  0.22819316     0.37800
N1991       N  0.98408237  0.28509845  0.20924390    -0.88800
H1992       H  0.53276144  0.32495493  0.21630535     0.18900
H1993       H  0.55327603  0.22004409  0.27906418     0.18900
N1994       N  0.60340123  0.25871033  0.28345600    -0.87900
H1995       H  0.96535046  0.28075882  0.22855148     0.36200
H1996       H  0.98142463  0.26993000  0.18549506     0.41300
H1997       H  0.62015462  0.27708226  0.27991021     0.41000
H1998       H  0.61266860  0.23913395  0.26844348     0.35800
C1999       C  0.50482684  0.28421246  0.02530403    -0.25900
C2000       C  0.51029098  0.25628471  0.00383863    -0.14000
C2001       C  0.53958856  0.25289831  0.48371918     0.36700
C2002       C  0.56168002  0.27828733  0.48381001    -0.25300
C2003       C  0.55605243  0.30637577  0.00481110    -0.14600
C2004       C  0.52736434  0.30940479  0.02587317     0.37800
N2005       N  0.52085886  0.33837476  0.04672180    -0.88800
H2006       H  0.98245854  0.28658485  0.04081831     0.18900
H2007       H  0.58395582  0.27574296  0.46813747     0.18900
N2008       N  0.54814009  0.22394813  0.46384631    -0.87900
H2009       H  0.99868389  0.33679773  0.56060252     0.36200
H2010       H  0.51891562  0.35695306  0.52650804     0.41300
H2011       H  0.53151960  0.20569463  0.96888318     0.41000
H2012       H  0.56966483  0.21570788  0.97599158     0.35800
C2013       C  0.95811837  0.17203786  0.35449192    -0.25900
C2014       C  0.92932071  0.16855855  0.33349963    -0.14000
C2015       C  0.90156966  0.15917708  0.35470744     0.36700
C2016       C  0.90181341  0.16146946  0.39510434    -0.25300
C2017       C  0.92966047  0.16990231  0.41597404    -0.14600
C2018       C  0.95890168  0.17186425  0.39513468     0.37800
N2019       N  0.98944420  0.17330291  0.41475435    -0.88800
H2020       H  0.98061652  0.17313870  0.33925479     0.18900
H2021       H  0.88014143  0.15490822  0.41035208     0.18900
N2022       N  0.87352991  0.14496138  0.33719417    -0.87900
H2023       H  0.50817973  0.17665572  0.39515439     0.36200
H2024       H  0.99364073  0.15132776  0.42815941     0.41300
H2025       H  0.87679355  0.13902656  0.30828487     0.41000
H2026       H  0.85443527  0.16099986  0.33946568     0.35800
C2027       C  0.91620426  0.14469447  0.14544120    -0.25900
C2028       C  0.92521366  0.17258729  0.16578844    -0.14000
C2029       C  0.92729919  0.20164267  0.14412498     0.36700
C2030       C  0.92769092  0.20027116  0.10371495    -0.25300
C2031       C  0.92450149  0.17125685  0.08359259    -0.14600
C2032       C  0.91465814  0.14411323  0.10494875     0.37800
N2033       N  0.90143062  0.11651329  0.08600338    -0.88800
H2034       H  0.90907165  0.12327516  0.16085676     0.18900
H2035       H  0.92916048  0.22261948  0.08793915     0.18900
N2036       N  0.92827673  0.23304821  0.16125953    -0.87900
H2037       H  0.91454863  0.09643061  0.09476097     0.36200
H2038       H  0.87785797  0.11340535  0.09558030     0.41300
H2039       H  0.92496064  0.23247164  0.19097146     0.41000
H2040       H  0.90870324  0.24592117  0.15037919     0.35800
C2041       C  0.92665778  0.17129970  0.53944663     0.30400
C2042       C  0.92813728  0.17171649  0.96030506     0.30400
C2043       C  0.89453162  0.17880045  0.51923638    -0.05800
C2044       C  0.94993254  0.19561867  0.52092359    -0.06600
C2045       C  0.93732162  0.14003161  0.52032712    -0.06400
C2046       C  0.89519142  0.17935159  0.97856913    -0.05800
C2047       C  0.94996928  0.19656696  0.98067295    -0.06500
C2048       C  0.93733477  0.13996718  0.98007379    -0.06400
C2049       C  0.87152896  0.20075483  0.96720860    -0.31800
N2050       N  0.85596292  0.21181624  0.99875597     0.14700
C2051       C  0.87024147  0.19912800  0.53048908    -0.31800
H2052       H  0.86568137  0.20682281  0.55979958     0.16600
C2053       C  0.97125048  0.22044361  0.97009176    -0.30800
N2054       N  0.98571422  0.23203807  0.50245083     0.13400
C2055       C  0.97288189  0.21719295  0.53360297    -0.30800
C2056       C  0.95482582  0.11368847  0.96864056    -0.31100
N2057       N  0.96660838  0.09880668  0.50055796     0.13900
H2058       H  0.96100678  0.10753215  0.93925489     0.16500
C2059       C  0.95680556  0.11515316  0.53209941    -0.31100
H2060       H  0.96543711  0.11090826  0.56124308     0.16500
H2061       H  0.98045642  0.22142913  0.56313085     0.16500
H2062       H  0.86813043  0.21010864  0.93826524     0.16600
H2063       H  0.97633359  0.22865315  0.94107760     0.16500
C2064       C  0.92994647  0.17076605  0.78911609     0.30400
C2065       C  0.92838419  0.17116283  0.70998663     0.30400
C2066       C  0.89994231  0.18538434  0.77014283    -0.05800
C2067       C  0.95694494  0.19042145  0.76912346    -0.06600
C2068       C  0.93305026  0.13769465  0.76976531    -0.06400
C2069       C  0.89879961  0.18466131  0.73018382    -0.05800
C2070       C  0.95652820  0.18976844  0.72875622    -0.06500
C2071       C  0.93254097  0.13781428  0.72894917    -0.06400
C2072       C  0.87238884  0.20210478  0.71855430    -0.31800
N2073       N  0.85797382  0.21408484  0.75040634     0.14700
C2074       C  0.87486571  0.20442275  0.78203077    -0.31800
H2075       H  0.87037039  0.21224883  0.81129343     0.16600
C2076       C  0.98098860  0.20947675  0.71607131    -0.30800
N2077       N  0.99504439  0.22353615  0.74723534     0.13400
C2078       C  0.98062070  0.21221387  0.77965068    -0.30800
C2079       C  0.95261343  0.11309016  0.71780551    -0.31100
N2080       N  0.96389911  0.09748942  0.74935544     0.13900
H2081       H  0.96159225  0.10933967  0.68888452     0.16500
C2082       C  0.95265413  0.11260219  0.78099234    -0.31100
H2083       H  0.96140052  0.10837416  0.81009829     0.16500
H2084       H  0.98592797  0.22078083  0.80848543     0.16500
H2085       H  0.86555769  0.20763654  0.68904417     0.16600
H2086       H  0.98731262  0.21420593  0.68632248     0.16500
C2087       C  0.66931170  0.14539668  0.95887169     0.30400
C2088       C  0.66919370  0.14553914  0.53785465     0.30400
C2089       C  0.63663271  0.13768667  0.97771524    -0.05800
C2090       C  0.69104144  0.12025426  0.97855267    -0.06600
C2091       C  0.67967912  0.17704920  0.97814674    -0.06400
C2092       C  0.63665781  0.13801351  0.51849425    -0.05800
C2093       C  0.69182559  0.12117395  0.51877077    -0.06500
C2094       C  0.68036484  0.17674035  0.51863350    -0.06400
C2095       C  0.61421244  0.11549569  0.53009368    -0.31800
N2096       N  0.60059684  0.10162520  0.99873868     0.14700
C2097       C  0.61440936  0.11443285  0.96691764    -0.31800
H2098       H  0.61139986  0.10485875  0.93805721     0.16600
C2099       C  0.71492516  0.09975931  0.53076722    -0.30800
N2100       N  0.72676498  0.08467154  0.99934561     0.13400
C2101       C  0.71164529  0.09622993  0.96740116    -0.30800
C2102       C  0.70431496  0.19794443  0.52959273    -0.31100
N2103       N  0.71607462  0.21288506  0.99797303     0.13900
H2104       H  0.71410700  0.20052335  0.55850427     0.16500
C2105       C  0.70166690  0.20000240  0.96645074    -0.31100
H2106       H  0.70861456  0.20507998  0.93699865     0.16500
H2107       H  0.71589551  0.08804045  0.93826823     0.16500
H2108       H  0.61096475  0.10703863  0.55941904     0.16600
H2109       H  0.72299882  0.09553536  0.56010238     0.16500
C2110       C  0.66987484  0.14351006  0.70899982     0.30400
C2111       C  0.66941362  0.14506512  0.78794557     0.30400
C2112       C  0.63804194  0.13350226  0.72812432    -0.05800
C2113       C  0.69510245  0.12238124  0.72937015    -0.06600
C2114       C  0.67773048  0.17640181  0.72733667    -0.06400
C2115       C  0.63829598  0.13334430  0.76852377    -0.05800
C2116       C  0.69432802  0.12244633  0.76963672    -0.06500
C2117       C  0.67705217  0.17719958  0.76808019    -0.06400
C2118       C  0.61674487  0.10978377  0.77968570    -0.31800
N2119       N  0.60148347  0.09787793  0.74817336     0.14700
C2120       C  0.61449939  0.11191739  0.71655967    -0.31800
H2121       H  0.60901250  0.10506005  0.68709779     0.16600
C2122       C  0.71835864  0.10222281  0.78214376    -0.30800
N2123       N  0.73471755  0.09152959  0.75095251     0.13400
C2124       C  0.72100018  0.10408653  0.71867624    -0.30800
C2125       C  0.69982475  0.19958107  0.77950406    -0.31100
N2126       N  0.71415616  0.21236067  0.74811568     0.13900
H2127       H  0.70798327  0.20350584  0.80889463     0.16500
C2128       C  0.70146551  0.19803625  0.71642632    -0.31100
H2129       H  0.71129957  0.20037258  0.68766107     0.16500
H2130       H  0.72917153  0.09991124  0.68954317     0.16500
H2131       H  0.61401068  0.10047123  0.80872154     0.16600
H2132       H  0.72383787  0.09565572  0.81170739     0.16500
C2133       C  0.88305784  0.43107137  0.96178822     0.30400
C2134       C  0.88351407  0.43027923  0.54127249     0.30400
C2135       C  0.91544528  0.44046554  0.98154654    -0.05800
C2136       C  0.85938646  0.45349688  0.98179564    -0.06600
C2137       C  0.87627438  0.39830165  0.98108863    -0.06400
C2138       C  0.91523793  0.44075250  0.52200871    -0.05800
C2139       C  0.85961784  0.45347597  0.52193921    -0.06500
C2140       C  0.87585176  0.39832449  0.52138289    -0.06400
C2141       C  0.94285789  0.45641108  0.53400857    -0.31800
N2142       N  0.96076367  0.46379190  0.00257143     0.14700
C2143       C  0.94461651  0.45363072  0.97058221    -0.31800
H2144       H  0.95300114  0.45743166  0.94144094     0.16600
C2145       C  0.83800558  0.47657412  0.53333760    -0.30800
N2146       N  0.82400875  0.48930833  0.00129748     0.13400
C2147       C  0.83721341  0.47570960  0.96965764    -0.30800
C2148       C  0.86110627  0.37035242  0.53304384    -0.31100
N2149       N  0.85340015  0.35290583  0.00122607     0.13900
H2150       H  0.85361472  0.36470958  0.56219225     0.16500
C2151       C  0.86367118  0.36915507  0.96956028    -0.31100
H2152       H  0.85974858  0.36133672  0.94019139     0.16500
H2153       H  0.83130836  0.48178328  0.94001689     0.16500
H2154       H  0.94833494  0.46406748  0.56319376     0.16600
H2155       H  0.83269237  0.48379291  0.56260777     0.16500
C2156       C  0.88276189  0.42998419  0.71179734     0.30400
C2157       C  0.88422673  0.43085230  0.79122699     0.30400
C2158       C  0.91622265  0.43510859  0.73049877    -0.05800
C2159       C  0.86344388  0.45676793  0.73115006    -0.06600
C2160       C  0.87096895  0.39958975  0.73208228    -0.06400
C2161       C  0.91731467  0.43461127  0.77120936    -0.05800
C2162       C  0.86395083  0.45664862  0.77128320    -0.06500
C2163       C  0.87168766  0.39960822  0.77226675    -0.06400
C2164       C  0.94600748  0.44896565  0.78186929    -0.31800
N2165       N  0.96070131  0.46061713  0.74994251     0.14700
C2166       C  0.94252503  0.45282377  0.71873253    -0.31800
H2167       H  0.94630891  0.46228161  0.68995106     0.16600
C2168       C  0.84448710  0.48094878  0.78356453    -0.30800
N2169       N  0.83190043  0.49584942  0.75209219     0.13400
C2170       C  0.84401239  0.48188102  0.71989052    -0.30800
C2171       C  0.85910334  0.37033904  0.78375982    -0.31100
N2172       N  0.84971308  0.35374212  0.75187570     0.13900
H2173       H  0.85573685  0.36193686  0.81303808     0.16500
C2174       C  0.85743281  0.37117819  0.72015776    -0.31100
H2175       H  0.85173755  0.36459123  0.69063724     0.16500
H2176       H  0.83828664  0.48895823  0.69057033     0.16500
H2177       H  0.95464654  0.45281299  0.81094471     0.16600
H2178       H  0.83955152  0.48710229  0.81330005     0.16500
C2179       C  0.64057359  0.38795590  0.96110983     0.30400
C2180       C  0.64317030  0.38786859  0.54032738     0.30400
C2181       C  0.63592876  0.42087712  0.98054879    -0.05800
C2182       C  0.61577112  0.36641956  0.98173261    -0.06600
C2183       C  0.67214978  0.37594522  0.97948365    -0.06400
C2184       C  0.63672651  0.42081892  0.52133271    -0.05800
C2185       C  0.61609467  0.36762850  0.52196548    -0.06500
C2186       C  0.67353187  0.37643835  0.51959159    -0.06400
C2187       C  0.61601821  0.44493467  0.53267679    -0.31800
N2188       N  0.60445621  0.46043967  0.00117964     0.14700
C2189       C  0.61619159  0.44584976  0.96943246    -0.31800
H2190       H  0.60818353  0.45080743  0.94022013     0.16600
C2191       C  0.59239633  0.34710426  0.53487241    -0.30800
N2192       N  0.57946377  0.33178947  0.00387448     0.13400
C2193       C  0.59431492  0.34257396  0.97159198    -0.30800
C2194       C  0.70049054  0.35960871  0.53080400    -0.31100
N2195       N  0.71505091  0.34805628  0.99879625     0.13900
H2196       H  0.70735294  0.35374950  0.56021067     0.16500
C2197       C  0.69779867  0.35763212  0.96732350    -0.31100
H2198       H  0.70213044  0.34977703  0.93802972     0.16500
H2199       H  0.59028827  0.33290528  0.94297729     0.16500
H2200       H  0.60706178  0.44845771  0.56164882     0.16600
H2201       H  0.58608167  0.34241605  0.56462124     0.16500
C2202       C  0.64417172  0.38732864  0.79017284     0.30400
C2203       C  0.64472418  0.38728671  0.71109540     0.30400
C2204       C  0.67678349  0.38012248  0.77151632    -0.05800
C2205       C  0.62261565  0.36169025  0.77048506    -0.06600
C2206       C  0.63325699  0.41850755  0.77047322    -0.06400
C2207       C  0.67723679  0.38091147  0.73087677    -0.05800
C2208       C  0.62252162  0.36205658  0.73013483    -0.06500
C2209       C  0.63304192  0.41831574  0.73016866    -0.06400
C2210       C  0.70151052  0.36064318  0.71939249    -0.31800
N2211       N  0.71555411  0.34751825  0.75094949     0.14700
C2212       C  0.69978597  0.35797928  0.78246844    -0.31800
H2213       H  0.70274296  0.34798704  0.81118567     0.16600
C2214       C  0.60153116  0.33831822  0.71809353    -0.30800
N2215       N  0.59017171  0.32265701  0.74961908     0.13400
C2216       C  0.60271563  0.33676093  0.78175840    -0.30800
C2217       C  0.61141459  0.44151257  0.71845933    -0.31100
N2218       N  0.60004172  0.45683671  0.74997335     0.13900
H2219       H  0.60284660  0.44540575  0.68921391     0.16500
C2220       C  0.61250752  0.44241061  0.78185424    -0.31100
H2221       H  0.60501255  0.44716298  0.81117980     0.16500
H2222       H  0.59763007  0.32925369  0.81104572     0.16500
H2223       H  0.70617546  0.35322918  0.69000616     0.16600
H2224       H  0.59477798  0.33267808  0.68862938     0.16500
O2225       O  0.56868876  0.06394819  0.53182086    -0.72500
O2226       O  0.00027090  0.99504604  0.53418250    -0.73500
O2227       O  0.56931109  0.49532732  0.53327339    -0.62100
O2228       O  0.50082840  0.06298736  0.53287742    -0.70500
O2229       O  0.49991520  0.06230751  0.96873612    -0.70100
O2230       O  0.56850236  0.49491548  0.96916459    -0.61300
O2231       O  0.99972644  0.99444937  0.97008080    -0.73800
O2232       O  0.56776207  0.06337219  0.96771122    -0.72600
Cu2233     Cu  0.53491988  0.02919702  0.53529114     1.04600
Cu2234     Cu  0.53403831  0.02857511  0.96674317     1.04300
C2235       C  0.57831602  0.07518700  0.99943341     0.93700
C2236       C  0.98833937  0.98476408  0.00232761     0.92800
C2237       C  0.57986512  0.48451989  0.00122855     0.85000
C2238       C  0.48983134  0.07356576  0.00073029     0.91200
O2239       O  0.56589184  0.49295398  0.71749225    -0.72500
O2240       O  0.49833772  0.06195457  0.71720449    -0.73500
O2241       O  0.56669573  0.06167185  0.71649095    -0.62100
O2242       O  0.99759125  0.99380709  0.71769614    -0.70500
O2243       O  0.99817690  0.99383032  0.78182016    -0.70100
O2244       O  0.56732323  0.06180909  0.78060007    -0.61300
O2245       O  0.49894741  0.06203541  0.78132459    -0.73800
O2246       O  0.56637026  0.49326560  0.78161152    -0.72600
Cu2247     Cu  0.53217160  0.02755514  0.71499158     1.04600
Cu2248     Cu  0.53279284  0.02773297  0.78354413     1.04300
C2249       C  0.57652952  0.48196351  0.74966872     0.93700
C2250       C  0.98794356  0.07286015  0.74928720     0.92800
C2251       C  0.57768708  0.07275262  0.74839725     0.85000
C2252       C  0.98674537  0.98332518  0.74983750     0.91200
O2253       O  0.75237114  0.24676146  0.53027282    -0.72500
O2254       O  0.82062991  0.31494115  0.53227037    -0.73500
O2255       O  0.75218804  0.31473775  0.53094358    -0.62100
O2256       O  0.82073921  0.24658130  0.53099200    -0.70500
O2257       O  0.82089916  0.24738278  0.96689389    -0.70100
O2258       O  0.75213143  0.31513239  0.96683257    -0.61300
O2259       O  0.82072656  0.31573862  0.96816157    -0.73800
O2260       O  0.75235122  0.24713717  0.96613690    -0.72600
Cu2261     Cu  0.78655136  0.28071002  0.53334004     1.04600
Cu2262     Cu  0.78663071  0.28136279  0.96479191     1.04300
C2263       C  0.74132956  0.23638656  0.99807254     0.93700
C2264       C  0.83115681  0.32648603  0.00052825     0.92800
C2265       C  0.74096011  0.32532386  0.99884437     0.85000
C2266       C  0.83160938  0.23618234  0.99888501     0.91200
O2267       O  0.75119887  0.31354181  0.71864654    -0.72500
O2268       O  0.82050072  0.24680776  0.71827700    -0.73500
O2269       O  0.75173095  0.24569323  0.71705704    -0.62100
O2270       O  0.81909134  0.31484882  0.71941008    -0.70500
O2271       O  0.81899636  0.31438337  0.78354920    -0.70100
O2272       O  0.75166732  0.24476799  0.78117211    -0.61300
O2273       O  0.82054525  0.24629932  0.78241171    -0.73800
O2274       O  0.75097405  0.31256302  0.78278600    -0.72600
Cu2275     Cu  0.78572539  0.28012409  0.71614057     1.04600
Cu2276     Cu  0.78561854  0.27931511  0.78472134     1.04300
C2277       C  0.74015352  0.32359070  0.75078256     0.93700
C2278       C  0.83186546  0.23642148  0.75035461     0.92800
C2279       C  0.74037002  0.23492345  0.74878443     0.85000
C2280       C  0.82899116  0.32619301  0.75165850     0.91200
C2281       C  0.61421805  0.38464957  0.85338559    -0.25900
C2282       C  0.64362840  0.38940759  0.83448867    -0.14000
C2283       C  0.66954889  0.40154300  0.85729504     0.36700
C2284       C  0.66771530  0.40041636  0.89766287    -0.25300
C2285       C  0.63993265  0.38974942  0.91670643    -0.14600
C2286       C  0.61168613  0.38601083  0.89385934     0.37800
N2287       N  0.58035902  0.38541697  0.91103740    -0.88800
H2288       H  0.59257532  0.38144283  0.83635225     0.18900
H2289       H  0.68816827  0.40879025  0.91438055     0.18900
N2290       N  0.69640909  0.41835340  0.84112784    -0.87900
H2291       H  0.56243400  0.38209142  0.89010404     0.36200
H2292       H  0.57616019  0.40772860  0.92348441     0.41300
H2293       H  0.68836797  0.43447610  0.82005622     0.41000
H2294       H  0.71284613  0.40241682  0.82952576     0.35800
C2295       C  0.65363515  0.41476517  0.60503547    -0.25900
C2296       C  0.64649966  0.38643891  0.58457459    -0.14000
C2297       C  0.64615998  0.35724702  0.60617028     0.36700
C2298       C  0.64571436  0.35844399  0.64661547    -0.25300
C2299       C  0.64693289  0.38754199  0.66685337    -0.14600
C2300       C  0.65518468  0.41538497  0.64561156     0.39000
N2301       N  0.66635678  0.44380985  0.66499108    -0.88800
H2302       H  0.65941382  0.43647540  0.58942935     0.18900
H2303       H  0.64561518  0.33602960  0.66236439     0.18900
N2304       N  0.64806269  0.32592348  0.58901091    -0.87900
H2305       H  0.67144276  0.46205077  0.64515840     0.36200
H2306       H  0.68804180  0.43820114  0.67878265     0.41300
H2307       H  0.65032694  0.32648103  0.55912415     0.41000
H2308       H  0.62709474  0.31326358  0.59561663     0.35800
C2309       C  0.89805221  0.45649538  0.89742263    -0.25900
C2310       C  0.88009480  0.43326060  0.91748425    -0.14000
C2311       C  0.85495730  0.41851408  0.89562025     0.36700
C2312       C  0.85746282  0.41744592  0.85524340    -0.25300
C2313       C  0.88234694  0.43334516  0.83551515    -0.14600
C2314       C  0.89819554  0.45769160  0.85684105     0.37800
N2315       N  0.91031795  0.48586671  0.83811441    -0.88800
H2316       H  0.90977385  0.47565227  0.91301848     0.18900
H2317       H  0.83784122  0.40677577  0.83921114     0.18900
N2318       N  0.82465287  0.40897621  0.91188520    -0.87900
H2319       H  0.93343381  0.49049271  0.84875680     0.36200
H2320       H  0.89609583  0.50516921  0.84658815     0.41300
H2321       H  0.82340842  0.41285674  0.94153875     0.41000
H2322       H  0.82064259  0.38470414  0.90625488     0.35800
C2323       C  0.85375134  0.43105699  0.60519118    -0.25900
C2324       C  0.88296995  0.42792652  0.58543032    -0.14000
C2325       C  0.90945676  0.41649432  0.60698923     0.36700
C2326       C  0.90880049  0.41755953  0.64747492    -0.25300
C2327       C  0.88119634  0.42729650  0.66755964    -0.14600
C2328       C  0.85219344  0.42973631  0.64564584     0.37800
N2329       N  0.82071845  0.42831238  0.66246496    -0.88800
H2330       H  0.83147001  0.43283651  0.58910727     0.18900
H2331       H  0.92981162  0.40939955  0.66312728     0.18900
N2332       N  0.93618733  0.40183318  0.58822454    -0.87900
H2333       H  0.80906837  0.45000782  0.65707860     0.36200
H2334       H  0.82125983  0.42435263  0.69216131     0.41300
H2335       H  0.93746438  0.37800859  0.59750870     0.41000
H2336       H  0.95718876  0.41338799  0.59746610     0.35800
C2337       C  0.81027979  0.04665648  0.72738886    -0.25900
C2338       C  0.80786905  0.02048770  0.75273992    -0.14000
C2339       C  0.78147833  0.01838440  0.77807672     0.36700
C2340       C  0.75825149  0.04255694  0.77764254    -0.25300
C2341       C  0.76035267  0.06851964  0.75199822    -0.14600
C2342       C  0.78694544  0.07090492  0.72698135     0.37800
N2343       N  0.79039743  0.09808752  0.70175748    -0.88800
H2344       H  0.83069987  0.04830358  0.70825236     0.18900
H2345       H  0.73766913  0.04052780  0.79646010     0.18900
N2346       N  0.77773897  0.49116419  0.80320497    -0.87900
H2347       H  0.81124598  0.09614656  0.68526649     0.36200
H2348       H  0.79327230  0.11839308  0.71910014     0.41300
H2349       H  0.77419791  0.47099467  0.78579845     0.41000
H2350       H  0.75718961  0.49343611  0.82016334     0.35800
C2351       C  0.74762481  0.03280975  0.97811819    -0.25900
C2352       C  0.75161337  0.06087826  0.99984000    -0.14000
C2353       C  0.77983796  0.06523335  0.52214210     0.36700
C2354       C  0.80321618  0.04108957  0.52277690    -0.25300
C2355       C  0.79925064  0.01312666  0.00092052    -0.14600
C2356       C  0.77105391  0.00871592  0.97871794     0.37800
N2357       N  0.76609081  0.47946879  0.95761383    -0.88800
H2358       H  0.72580610  0.02946878  0.96135717     0.18900
H2359       H  0.82501958  0.04432713  0.53960268     0.18900
N2360       N  0.78495112  0.09445070  0.54326245    -0.87900
H2361       H  0.74405928  0.47990320  0.94293944     0.36200
H2362       H  0.76471583  0.46078013  0.97772609     0.41300
H2363       H  0.78655457  0.11311152  0.52313714     0.41000
H2364       H  0.80689421  0.09385615  0.55812414     0.35800
C2365       C  0.64191648  0.15578433  0.89400435    -0.25900
C2366       C  0.66989466  0.14719430  0.91455695    -0.14000
C2367       C  0.69883829  0.14579960  0.89339367     0.36700
C2368       C  0.69785170  0.14553375  0.85292354    -0.25300
C2369       C  0.66878155  0.14770205  0.83224251    -0.14600
C2370       C  0.64138670  0.15755564  0.85351742     0.37800
N2371       N  0.61430565  0.17302503  0.83580962    -0.88800
H2372       H  0.62048946  0.16256193  0.90947970     0.18900
H2373       H  0.72041319  0.14505918  0.83771265     0.18900
N2374       N  0.72950352  0.14628565  0.91244457    -0.87900
H2375       H  0.59998911  0.15667510  0.82094408     0.36200
H2376       H  0.62242985  0.19085469  0.81694972     0.41300
H2377       H  0.74183984  0.16680269  0.90338147     0.41000
H2378       H  0.74267746  0.12660909  0.90285377     0.35800
C2379       C  0.67175314  0.11629613  0.60212169    -0.25900
C2380       C  0.66753884  0.14544997  0.58225817    -0.14000
C2381       C  0.65683268  0.17196276  0.60438394     0.36700
C2382       C  0.65818135  0.17055589  0.64479412    -0.25300
C2383       C  0.66824559  0.14283700  0.66464076    -0.14600
C2384       C  0.67208790  0.11444662  0.64265035     0.37800
N2385       N  0.67595810  0.08367457  0.66090220    -0.88800
H2386       H  0.67335014  0.09425018  0.58600005     0.18900
H2387       H  0.65047809  0.19137417  0.66082687     0.18900
N2388       N  0.64174280  0.19947598  0.58741529    -0.87900
H2389       H  0.68037220  0.06582297  0.64048260     0.36200
H2390       H  0.65453190  0.07737379  0.67431596     0.41300
H2391       H  0.62405491  0.19197771  0.56782217     0.41000
H2392       H  0.65853729  0.21390020  0.57357218     0.35800
C2393       C  0.53751611  0.30194851  0.72971445    -0.25900
C2394       C  0.56696675  0.29691304  0.74868521    -0.14000
C2395       C  0.57301850  0.26663313  0.76597543     0.36700
C2396       C  0.54885220  0.24297482  0.76533311    -0.25300
C2397       C  0.51943400  0.24813299  0.74636612    -0.14600
C2398       C  0.51389610  0.27799591  0.72819442     0.37800
N2399       N  0.98406801  0.28510434  0.70925619    -0.88800
H2400       H  0.53277103  0.32494727  0.71630032     0.18900
H2401       H  0.55327804  0.22004012  0.77907180     0.18900
N2402       N  0.60340355  0.25870580  0.78346690    -0.87900
H2403       H  0.96533755  0.28075968  0.72856421     0.36200
H2404       H  0.98141135  0.26993792  0.68550521     0.41300
H2405       H  0.62015769  0.27707718  0.77992220     0.41000
H2406       H  0.61267232  0.23912808  0.76845814     0.35800
C2407       C  0.50482845  0.28421954  0.52531007    -0.25900
C2408       C  0.51029100  0.25629341  0.50384090    -0.14000
C2409       C  0.53959100  0.25288712  0.98372278     0.36700
C2410       C  0.56168236  0.27827650  0.98381231    -0.25300
C2411       C  0.55605168  0.30638493  0.50481244    -0.14600
C2412       C  0.52736470  0.30941298  0.52587682     0.37800
N2413       N  0.52085815  0.33838375  0.54672330    -0.88800
H2414       H  0.98244917  0.28659786  0.54079976     0.18900
H2415       H  0.58395948  0.27573095  0.96814280     0.18900
N2416       N  0.54814516  0.22393378  0.96385829    -0.87900
H2417       H  0.99868556  0.33678850  0.06061375     0.36200
H2418       H  0.51891916  0.35694570  0.02650842     0.41300
H2419       H  0.53151625  0.20570766  0.46887200     0.41000
H2420       H  0.56966215  0.21572114  0.47597221     0.35800
C2421       C  0.95811388  0.17204511  0.85448983    -0.25900
C2422       C  0.92931681  0.16856274  0.83349728    -0.14000
C2423       C  0.90156575  0.15918240  0.85470618     0.36700
C2424       C  0.90181029  0.16147416  0.89510377    -0.25300
C2425       C  0.92965765  0.16990685  0.91597361    -0.14600
C2426       C  0.95889776  0.17187172  0.89513258     0.37800
N2427       N  0.98944071  0.17330980  0.91475076    -0.88800
H2428       H  0.98061207  0.17314594  0.83925286     0.18900
H2429       H  0.88013867  0.15491249  0.91035203     0.18900
N2430       N  0.87352485  0.14496866  0.83719329    -0.87900
H2431       H  0.50818080  0.17663228  0.89515693     0.36200
H2432       H  0.99364022  0.15133149  0.92814706     0.41300
H2433       H  0.87678803  0.13903320  0.80828406     0.41000
H2434       H  0.85443151  0.16100874  0.83946474     0.35800
C2435       C  0.91620945  0.14469402  0.64543782    -0.25900
C2436       C  0.92521641  0.17258752  0.66578501    -0.14000
C2437       C  0.92729913  0.20164350  0.64412197     0.36700
C2438       C  0.92768838  0.20027271  0.60371201    -0.25300
C2439       C  0.92450070  0.17125843  0.58358974    -0.14600
C2440       C  0.91466149  0.14411322  0.60494580     0.37800
N2441       N  0.90143628  0.11651185  0.58600099    -0.88800
H2442       H  0.90907930  0.12327375  0.66085302     0.18900
H2443       H  0.92915507  0.22262127  0.58793646     0.18900
N2444       N  0.92827639  0.23304896  0.66125665    -0.87900
H2445       H  0.91455717  0.09643064  0.59475731     0.36200
H2446       H  0.87786461  0.11340067  0.59557993     0.41300
H2447       H  0.92496301  0.23247242  0.69096898     0.41000
H2448       H  0.90870146  0.24592098  0.65037856     0.35800
C2449       C  0.92665662  0.67129583  0.03944737     0.30400
C2450       C  0.92813928  0.67171823  0.46030226     0.30400
C2451       C  0.89453331  0.67880566  0.01923631    -0.05800
C2452       C  0.94993800  0.69561077  0.02092906    -0.06600
C2453       C  0.93731312  0.64002679  0.02032304    -0.06400
C2454       C  0.89519243  0.67935576  0.47856324    -0.05800
C2455       C  0.94997210  0.69656660  0.48067274    -0.06500
C2456       C  0.93733245  0.63996738  0.48006966    -0.06400
C2457       C  0.87152983  0.70075894  0.46720123    -0.31800
N2458       N  0.85596180  0.71181973  0.49874803     0.14700
C2459       C  0.87024059  0.69912900  0.03049183    -0.31800
H2460       H  0.86567806  0.70681943  0.05980342     0.16600
C2461       C  0.97125285  0.72044500  0.47009518    -0.30800
N2462       N  0.98572358  0.73202959  0.00246556     0.13400
C2463       C  0.97288930  0.71718076  0.03361405    -0.30800
C2464       C  0.95482490  0.61368979  0.46863527    -0.31100
N2465       N  0.96660175  0.59880472  0.00054834     0.13900
H2466       H  0.96100784  0.60753582  0.43924940     0.16500
C2467       C  0.95679578  0.61514635  0.03209188    -0.31100
H2468       H  0.96542601  0.61089790  0.06123534     0.16500
H2469       H  0.98046161  0.72141335  0.06314351     0.16500
H2470       H  0.86813206  0.71011219  0.43825747     0.16600
H2471       H  0.97633776  0.72865599  0.44108211     0.16500
C2472       C  0.92994566  0.67076337  0.28911716     0.30400
C2473       C  0.92837940  0.67115918  0.20998796     0.30400
C2474       C  0.89993833  0.68537789  0.27014649    -0.05800
C2475       C  0.95694130  0.69042205  0.26912177    -0.06600
C2476       C  0.93305003  0.63769227  0.26976661    -0.06400
C2477       C  0.89879440  0.68465506  0.23018727    -0.05800
C2478       C  0.95652261  0.68976739  0.22875512    -0.06500
C2479       C  0.93253919  0.63781108  0.22895099    -0.06400
C2480       C  0.87238227  0.70209672  0.21855914    -0.31800
N2481       N  0.85796761  0.71407624  0.25041167     0.14700
C2482       C  0.87485969  0.70441331  0.28203589    -0.31800
H2483       H  0.87036418  0.71223813  0.31129903     0.16600
C2484       C  0.98098386  0.70947301  0.21606659    -0.30800
N2485       N  0.99504133  0.72353638  0.24722749     0.13400
C2486       C  0.98061845  0.71221521  0.27964483    -0.30800
C2487       C  0.95260934  0.61308497  0.21780776    -0.31100
N2488       N  0.96389367  0.59748349  0.24935830     0.13900
H2489       H  0.96158739  0.60933302  0.18888667     0.16500
C2490       C  0.95265032  0.61259778  0.28099487    -0.31100
H2491       H  0.96139596  0.60836922  0.31010099     0.16500
H2492       H  0.98592886  0.72078157  0.30847901     0.16500
H2493       H  0.86555091  0.70762919  0.18904927     0.16600
H2494       H  0.98731092  0.71419138  0.18631652     0.16500
C2495       C  0.66931166  0.64540123  0.45886948     0.30400
C2496       C  0.66918682  0.64554022  0.03785021     0.30400
C2497       C  0.63663422  0.63768279  0.47771201    -0.05800
C2498       C  0.69104768  0.62026404  0.47855179    -0.06600
C2499       C  0.67967112  0.67705663  0.47814408    -0.06400
C2500       C  0.63665216  0.63801088  0.01848951    -0.05800
C2501       C  0.69182184  0.62117738  0.01876830    -0.06500
C2502       C  0.68035567  0.67674231  0.01862888    -0.06400
C2503       C  0.61420912  0.61549094  0.03008944    -0.31800
N2504       N  0.60060243  0.60161575  0.49873377     0.14700
C2505       C  0.61441507  0.61442491  0.46691334    -0.31800
H2506       H  0.61140728  0.60485125  0.43805252     0.16600
C2507       C  0.71492295  0.59976548  0.03076774    -0.30800
N2508       N  0.72676825  0.58467853  0.49934802     0.13400
C2509       C  0.71165180  0.59623903  0.46740226    -0.30800
C2510       C  0.70430672  0.69794577  0.02958731    -0.31100
N2511       N  0.71606905  0.71289132  0.49796851     0.13900
H2512       H  0.71409997  0.70052332  0.05849841     0.16500
C2513       C  0.70165885  0.70001001  0.46644736    -0.31100
H2514       H  0.70860584  0.70508730  0.43699495     0.16500
H2515       H  0.71590215  0.58804825  0.43826989     0.16500
H2516       H  0.61096176  0.60703437  0.05941503     0.16600
H2517       H  0.72299473  0.59554228  0.06010379     0.16500
C2518       C  0.66986995  0.64351102  0.20899513     0.30400
C2519       C  0.66940643  0.64507096  0.28794146     0.30400
C2520       C  0.63803506  0.63350783  0.22811949    -0.05800
C2521       C  0.69509429  0.62238000  0.22936776    -0.06600
C2522       C  0.67772949  0.67640291  0.22733017    -0.06400
C2523       C  0.63828691  0.63335449  0.26851951    -0.05800
C2524       C  0.69431806  0.62244714  0.26963442    -0.06500
C2525       C  0.67704979  0.67720295  0.26807342    -0.06400
C2526       C  0.61673192  0.60979824  0.27968426    -0.31800
N2527       N  0.60147419  0.59788639  0.24817266     0.14700
C2528       C  0.61449361  0.61192044  0.21655740    -0.31800
H2529       H  0.60901057  0.60505701  0.18709660     0.16600
C2530       C  0.71834900  0.60222496  0.28214413    -0.30800
N2531       N  0.73471112  0.59153235  0.25095512     0.13400
C2532       C  0.72099470  0.60408692  0.21867686    -0.30800
C2533       C  0.69982286  0.69958386  0.27949706    -0.31100
N2534       N  0.71415597  0.71236175  0.24810874     0.13900
H2535       H  0.70797975  0.70351016  0.30888797     0.16500
C2536       C  0.70146626  0.69803577  0.21641952    -0.31100
H2537       H  0.71130119  0.70037067  0.18765456     0.16500
H2538       H  0.72916988  0.59991260  0.18954505     0.16500
H2539       H  0.61399459  0.60049066  0.30872187     0.16600
H2540       H  0.72382746  0.59565936  0.31170841     0.16500
C2541       C  0.88306857  0.93107228  0.46179101     0.30400
C2542       C  0.88351614  0.93028270  0.04128365     0.30400
C2543       C  0.91545711  0.94046045  0.48155043    -0.05800
C2544       C  0.85940059  0.95350340  0.48179483    -0.06600
C2545       C  0.87627740  0.89830464  0.48109200    -0.06400
C2546       C  0.91524189  0.94075328  0.02202150    -0.05800
C2547       C  0.85962315  0.95348038  0.02194760    -0.06500
C2548       C  0.87585137  0.89832733  0.02139616    -0.06400
C2549       C  0.94286042  0.95641500  0.03402151    -0.31800
N2550       N  0.96077473  0.96378721  0.50257689     0.14700
C2551       C  0.94462878  0.95362540  0.47058712    -0.31800
H2552       H  0.95301348  0.95742770  0.44144618     0.16600
C2553       C  0.83801197  0.97658011  0.03334403    -0.30800
N2554       N  0.82401799  0.98931218  0.50129055     0.13400
C2555       C  0.83722560  0.97571292  0.46965296    -0.30800
C2556       C  0.86110021  0.87035765  0.03305784    -0.31100
N2557       N  0.85339800  0.85291093  0.50122772     0.13900
H2558       H  0.85360481  0.86471782  0.06220564     0.16500
C2559       C  0.86367470  0.86915794  0.46956309    -0.31100
H2560       H  0.85975720  0.86133777  0.44019388     0.16500
H2561       H  0.83131968  0.98178234  0.44001117     0.16500
H2562       H  0.94833511  0.96407498  0.06320604     0.16600
H2563       H  0.83269711  0.98379904  0.06261376     0.16500
C2564       C  0.88276180  0.92998537  0.21180552     0.30400
C2565       C  0.88423222  0.93085311  0.29123370     0.30400
C2566       C  0.91622383  0.93510915  0.23050311    -0.05800
C2567       C  0.86344535  0.95676873  0.23115984    -0.06600
C2568       C  0.87096941  0.89959127  0.23209053    -0.06400
C2569       C  0.91731919  0.93461100  0.27121293    -0.05800
C2570       C  0.86395495  0.95665005  0.27129277    -0.06500
C2571       C  0.87169020  0.89960926  0.27227469    -0.06400
C2572       C  0.94601448  0.94896263  0.28186919    -0.31800
N2573       N  0.96070580  0.96061476  0.24994081     0.14700
C2574       C  0.94252617  0.95282290  0.21873332    -0.31800
H2575       H  0.94630736  0.96228166  0.18995175     0.16600
C2576       C  0.84448793  0.98094772  0.28357518    -0.30800
N2577       N  0.83189804  0.99584574  0.25210275     0.13400
C2578       C  0.84401006  0.98187824  0.21990103    -0.30800
C2579       C  0.85910506  0.87034006  0.28376760    -0.31100
N2580       N  0.84971417  0.85374343  0.25188319     0.13900
H2581       H  0.85573924  0.86193750  0.31304586     0.16500
C2582       C  0.85743293  0.87118022  0.22016562    -0.31100
H2583       H  0.85173745  0.86459379  0.19064507     0.16500
H2584       H  0.83828150  0.98895363  0.19058107     0.16500
H2585       H  0.95465667  0.95280861  0.31094353     0.16600
H2586       H  0.83955224  0.98710099  0.31331082     0.16500
C2587       C  0.64055985  0.88795299  0.46111005     0.30400
C2588       C  0.64316353  0.88786844  0.04032716     0.30400
C2589       C  0.63592479  0.92087812  0.48054382    -0.05800
C2590       C  0.61575369  0.86642593  0.48174084    -0.06600
C2591       C  0.67213462  0.87593644  0.47948140    -0.06400
C2592       C  0.63672432  0.92081891  0.02132949    -0.05800
C2593       C  0.61608213  0.86763109  0.02197216    -0.06500
C2594       C  0.67352043  0.87643110  0.01958759    -0.06400
C2595       C  0.61602287  0.94494066  0.03267398    -0.31800
N2596       N  0.60446057  0.96044805  0.50117468     0.14700
C2597       C  0.61618692  0.94585068  0.46942749    -0.31800
H2598       H  0.60816975  0.95080119  0.44021686     0.16600
C2599       C  0.59238896  0.84710341  0.03488625    -0.30800
N2600       N  0.57945188  0.83179480  0.50389603     0.13400
C2601       C  0.59429913  0.84257637  0.47160929    -0.30800
C2602       C  0.70048280  0.85960683  0.03079825    -0.31100
N2603       N  0.71504312  0.84805703  0.49879063     0.13900
H2604       H  0.70735072  0.85375407  0.06020490     0.16500
C2605       C  0.69778642  0.85762814  0.46731906    -0.31100
H2606       H  0.70211840  0.84977419  0.43802486     0.16500
H2607       H  0.59027361  0.83290050  0.44299803     0.16500
H2608       H  0.60707064  0.94846833  0.06164709     0.16600
H2609       H  0.58608112  0.84241436  0.06463706     0.16500
C2610       C  0.64416825  0.88732268  0.29017144     0.30400
C2611       C  0.64472601  0.88728243  0.21109394     0.30400
C2612       C  0.67678204  0.88011891  0.27151690    -0.05800
C2613       C  0.62261529  0.86168379  0.27048106    -0.06600
C2614       C  0.63325283  0.91850120  0.27047130    -0.06400
C2615       C  0.67723787  0.88091039  0.23087738    -0.05800
C2616       C  0.62252508  0.86204970  0.23013103    -0.06500
C2617       C  0.63303970  0.91830980  0.23016682    -0.06400
C2618       C  0.70151482  0.86064658  0.21939225    -0.31800
N2619       N  0.71555742  0.84752017  0.25094867     0.14700
C2620       C  0.69978579  0.85797647  0.28246775    -0.31800
H2621       H  0.70274156  0.84798149  0.31118380     0.16600
C2622       C  0.60153809  0.83830939  0.21808766    -0.30800
N2623       N  0.59017501  0.82264896  0.24961208     0.13400
C2624       C  0.60271418  0.83675516  0.28175243    -0.30800
C2625       C  0.61141253  0.94150616  0.21845591    -0.31100
N2626       N  0.60003838  0.95683016  0.24996929     0.13900
H2627       H  0.60284616  0.94539964  0.18920988     0.16500
C2628       C  0.61250337  0.94240448  0.28185105    -0.31100
H2629       H  0.60500811  0.94715752  0.31117636     0.16500
H2630       H  0.59762438  0.82924966  0.31103933     0.16500
H2631       H  0.70618215  0.85323552  0.19000541     0.16600
H2632       H  0.59478878  0.83266812  0.18862261     0.16500
O2633       O  0.56868725  0.56394142  0.03181728    -0.72500
O2634       O  0.00026353  0.49504638  0.03417629    -0.73500
O2635       O  0.56931697  0.99533390  0.03327393    -0.62100
O2636       O  0.50082736  0.56298478  0.03287017    -0.70500
O2637       O  0.49991710  0.56230494  0.46872668    -0.70100
O2638       O  0.56850561  0.99492537  0.46916390    -0.61300
O2639       O  0.99972297  0.49444935  0.47007066    -0.73800
O2640       O  0.56776520  0.56336344  0.46770602    -0.72600
Cu2641     Cu  0.53491650  0.52919163  0.03528665     1.04600
Cu2642     Cu  0.53403716  0.52856866  0.46673897     1.04300
C2643       C  0.57831984  0.57517829  0.49942813     0.93700
C2644       C  0.98833534  0.48476239  0.50231630     0.92800
C2645       C  0.57986982  0.98452873  0.50122645     0.85000
C2646       C  0.48983394  0.57356589  0.50071973     0.91200
O2647       O  0.56589067  0.99294889  0.21748688    -0.72500
O2648       O  0.49833284  0.56195016  0.21720669    -0.73500
O2649       O  0.56669115  0.56167418  0.21649297    -0.62100
O2650       O  0.99759131  0.49380229  0.21770208    -0.70500
O2651       O  0.99817772  0.49382535  0.28182603    -0.70100
O2652       O  0.56731907  0.56181282  0.28060196    -0.61300
O2653       O  0.49894236  0.56203315  0.28132661    -0.73800
O2654       O  0.56636919  0.99326143  0.28160622    -0.72600
Cu2655     Cu  0.53217106  0.52755353  0.21499435     1.04600
Cu2656     Cu  0.53279106  0.52773247  0.28354668     1.04300
C2657       C  0.57652741  0.98195802  0.24966367     0.93700
C2658       C  0.98793842  0.57285448  0.24929091     0.92800
C2659       C  0.57768115  0.57275745  0.24839856     0.85000
C2660       C  0.98674568  0.48332034  0.24984356     0.91200
O2661       O  0.75236451  0.74676010  0.03026960    -0.72500
O2662       O  0.82062236  0.81494297  0.03228119    -0.73500
O2663       O  0.75217881  0.81473597  0.03094063    -0.62100
O2664       O  0.82073413  0.74658064  0.03099764    -0.70500
O2665       O  0.82089607  0.74738615  0.46688702    -0.70100
O2666       O  0.75212874  0.81513821  0.46682700    -0.61300
O2667       O  0.82072567  0.81574366  0.46815958    -0.73800
O2668       O  0.75234652  0.74714298  0.46613127    -0.72600
Cu2669     Cu  0.78654405  0.78070942  0.03334271     1.04600
Cu2670     Cu  0.78662802  0.78136790  0.46478681     1.04300
C2671       C  0.74132562  0.73639142  0.49806707     0.93700
C2672       C  0.83115430  0.82649108  0.50052728     0.92800
C2673       C  0.74095522  0.82532745  0.49883869     0.85000
C2674       C  0.83160743  0.73618578  0.49887765     0.91200
O2675       O  0.75120485  0.81354658  0.21864455    -0.72500
O2676       O  0.82050056  0.74680507  0.21828063    -0.73500
O2677       O  0.75173106  0.74569669  0.21705263    -0.62100
O2678       O  0.81909720  0.81484802  0.21941470    -0.70500
O2679       O  0.81899670  0.81438320  0.28355371    -0.70100
O2680       O  0.75166652  0.74476829  0.28116755    -0.61300
O2681       O  0.82054355  0.74629735  0.28241530    -0.73800
O2682       O  0.75097530  0.81256304  0.28278385    -0.72600
Cu2683     Cu  0.78572873  0.78012542  0.21614080     1.04600
Cu2684     Cu  0.78561831  0.77931475  0.28472140     1.04300
C2685       C  0.74015737  0.82359329  0.25078066     0.93700
C2686       C  0.83186274  0.73641707  0.25035889     0.92800
C2687       C  0.74036964  0.73492512  0.24877898     0.85000
C2688       C  0.82899376  0.82619305  0.25166419     0.91200
C2689       C  0.61420993  0.88463616  0.35338250    -0.25900
C2690       C  0.64362071  0.88939999  0.33448764    -0.14000
C2691       C  0.66953739  0.90153956  0.35729649     0.36700
C2692       C  0.66770085  0.90041419  0.39766402    -0.25300
C2693       C  0.63991933  0.88974214  0.41670598    -0.14600
C2694       C  0.61167538  0.88599566  0.39385645     0.37800
N2695       N  0.58034749  0.88539747  0.41103183    -0.88800
H2696       H  0.59256831  0.88142780  0.33634768     0.18900
H2697       H  0.68815129  0.90879218  0.41438318     0.18900
N2698       N  0.69639810  0.91835047  0.34113157    -0.87900
H2699       H  0.56242388  0.88206923  0.39009736     0.36200
H2700       H  0.57614577  0.90770893  0.42347851     0.41300
H2701       H  0.68835744  0.93447448  0.32006119     0.41000
H2702       H  0.71283493  0.90241419  0.32952850     0.35800
C2703       C  0.65363099  0.91476519  0.10503569    -0.25900
C2704       C  0.64649807  0.88643861  0.08457408    -0.14000
C2705       C  0.64616469  0.85724571  0.10616864     0.36700
C2706       C  0.64572251  0.85844123  0.14661386    -0.25300
C2707       C  0.64693677  0.88753873  0.16685245    -0.14600
C2708       C  0.65518437  0.91538330  0.14561166     0.39000
N2709       N  0.66635615  0.94380793  0.16499206    -0.88800
H2710       H  0.65940601  0.93647673  0.08943051     0.18900
H2711       H  0.64562725  0.83602650  0.16236211     0.18900
N2712       N  0.64806824  0.82592267  0.08900793    -0.87900
H2713       H  0.67144003  0.96204987  0.14515998     0.36200
H2714       H  0.68804258  0.93820006  0.17878070     0.41300
H2715       H  0.65032417  0.82648083  0.05912027     0.41000
H2716       H  0.62710345  0.81325993  0.09561996     0.35800
C2717       C  0.89806473  0.95649460  0.39742684    -0.25900
C2718       C  0.88010633  0.93326054  0.41748815    -0.14000
C2719       C  0.85496691  0.91851609  0.39562543     0.36700
C2720       C  0.85747092  0.91744840  0.35524921    -0.25300
C2721       C  0.88235568  0.93334571  0.33552074    -0.14600
C2722       C  0.89820746  0.95769067  0.35684556     0.37800
N2723       N  0.91033304  0.98586411  0.33811825    -0.88800
H2724       H  0.90978807  0.97565048  0.41302266     0.18900
H2725       H  0.83784784  0.90678022  0.33921759     0.18900
N2726       N  0.82466209  0.90898027  0.41189102    -0.87900
H2727       H  0.93344942  0.99048749  0.34876056     0.36200
H2728       H  0.89611324  0.00516837  0.34659155     0.41300
H2729       H  0.82341692  0.91286294  0.44154405     0.41000
H2730       H  0.82065056  0.88470810  0.40626221     0.35800
C2731       C  0.85375093  0.93106176  0.10520068    -0.25900
C2732       C  0.88297033  0.92793127  0.08544100    -0.14000
C2733       C  0.90945630  0.91649755  0.10700004     0.36700
C2734       C  0.90879842  0.91755969  0.14748496    -0.25300
C2735       C  0.88119477  0.92729796  0.16756892    -0.14600
C2736       C  0.85219208  0.92973911  0.14565522     0.37800
N2737       N  0.82071698  0.92831284  0.16247399    -0.88800
H2738       H  0.83147015  0.93284258  0.08911590     0.18900
H2739       H  0.92980859  0.90939703  0.16313722     0.18900
N2740       N  0.93618844  0.90183879  0.08823599    -0.87900
H2741       H  0.80906490  0.95000713  0.15708704     0.36200
H2742       H  0.82125857  0.92435360  0.19217043     0.41300
H2743       H  0.93746623  0.87801368  0.09751801     0.41000
H2744       H  0.95718886  0.91339416  0.09748007     0.35800
C2745       C  0.81028066  0.54666603  0.22740438    -0.25900
C2746       C  0.80786345  0.52049092  0.25274529    -0.14000
C2747       C  0.78146931  0.51838528  0.27807719     0.36700
C2748       C  0.75824313  0.54255857  0.27764354    -0.25300
C2749       C  0.76034837  0.56852478  0.25200523    -0.14600
C2750       C  0.78694693  0.57091555  0.22699815     0.37800
N2751       N  0.79040451  0.59810426  0.20178500    -0.88800
H2752       H  0.83070452  0.54831649  0.20827409     0.18900
H2753       H  0.73765737  0.54052686  0.29645535     0.18900
N2754       N  0.77773638  0.99116626  0.30321683    -0.87900
H2755       H  0.81125744  0.59616763  0.18530114     0.36200
H2756       H  0.79327471  0.61840573  0.21913578     0.41300
H2757       H  0.77419688  0.97099485  0.28581294     0.41000
H2758       H  0.75718577  0.99343942  0.32017276     0.35800
C2759       C  0.74761595  0.53280912  0.47812759    -0.25900
C2760       C  0.75161174  0.56087979  0.49984408    -0.14000
C2761       C  0.77983650  0.56523480  0.02214859     0.36700
C2762       C  0.80321231  0.54108831  0.02278509    -0.25300
C2763       C  0.79924417  0.51312303  0.50091830    -0.14600
C2764       C  0.77104352  0.50871338  0.47872287     0.37800
N2765       N  0.76610292  0.97947054  0.45759800    -0.88800
H2766       H  0.72579412  0.52946919  0.46137229     0.18900
H2767       H  0.82501669  0.54432464  0.03960941     0.18900
N2768       N  0.78495308  0.59445305  0.04326604    -0.87900
H2769       H  0.74407268  0.97990468  0.44292061     0.36200
H2770       H  0.76472637  0.96078136  0.47770946     0.41300
H2771       H  0.78655749  0.61311251  0.02313902     0.41000
H2772       H  0.80689678  0.59385735  0.05812642     0.35800
C2773       C  0.64191548  0.65579638  0.39400377    -0.25900
C2774       C  0.66989294  0.64719990  0.41455430    -0.14000
C2775       C  0.69883548  0.64580513  0.39338913     0.36700
C2776       C  0.69784704  0.64553891  0.35291887    -0.25300
C2777       C  0.66877633  0.64771001  0.33223924    -0.14600
C2778       C  0.64138480  0.65756977  0.35351634     0.37800
N2779       N  0.61430824  0.67304811  0.33581047    -0.88800
H2780       H  0.62049059  0.66257713  0.40948139     0.18900
H2781       H  0.72040791  0.64506372  0.33770674     0.18900
N2782       N  0.72950142  0.64629505  0.41243811    -0.87900
H2783       H  0.59999204  0.65670475  0.32093408     0.36200
H2784       H  0.62243908  0.69088073  0.31695906     0.41300
H2785       H  0.74183484  0.66681346  0.40337373     0.41000
H2786       H  0.74267731  0.62661997  0.40284688     0.35800
C2787       C  0.67174575  0.61629651  0.10211631    -0.25900
C2788       C  0.66753111  0.64545049  0.08225331    -0.14000
C2789       C  0.65682453  0.67196276  0.10437920     0.36700
C2790       C  0.65817485  0.67055598  0.14478937    -0.25300
C2791       C  0.66824075  0.64283742  0.16463573    -0.14600
C2792       C  0.67208308  0.61444708  0.14264496     0.37800
N2793       N  0.67595626  0.58367528  0.16089633    -0.88800
H2794       H  0.67334258  0.59425068  0.08599427     0.18900
H2795       H  0.65047169  0.69137406  0.16082254     0.18900
N2796       N  0.64173230  0.69947484  0.08741086    -0.87900
H2797       H  0.68036944  0.56582378  0.14047620     0.36200
H2798       H  0.65453144  0.57737384  0.17431303     0.41300
H2799       H  0.62404250  0.69197493  0.06782116     0.41000
H2800       H  0.65852483  0.71389853  0.07356363     0.35800
C2801       C  0.53753861  0.80192913  0.22965037    -0.25900
C2802       C  0.56696776  0.79690692  0.24867548    -0.14000
C2803       C  0.57299573  0.76664183  0.26601583     0.36700
C2804       C  0.54882415  0.74298950  0.26537290    -0.25300
C2805       C  0.51942884  0.74813273  0.24634765    -0.14600
C2806       C  0.51391782  0.77797810  0.22812036     0.37800
N2807       N  0.98412733  0.78507284  0.20913037    -0.88800
H2808       H  0.53281154  0.82491594  0.21619694     0.18900
H2809       H  0.55323073  0.72006785  0.27915252     0.18900
N2810       N  0.60336407  0.75872015  0.28355381    -0.87900
H2811       H  0.96537245  0.78074794  0.22841023     0.36200
H2812       H  0.98149559  0.76989172  0.18538969     0.41300
H2813       H  0.62013021  0.77707828  0.27999387     0.41000
H2814       H  0.61263493  0.73912190  0.26858604     0.35800
C2815       C  0.50481845  0.78421094  0.02532127    -0.25900
C2816       C  0.51028302  0.75628528  0.00385151    -0.14000
C2817       C  0.53958306  0.75289170  0.48373599     0.36700
C2818       C  0.56167373  0.77828148  0.48383146    -0.25300
C2819       C  0.55604621  0.80637561  0.00483611    -0.14600
C2820       C  0.52735787  0.80940202  0.02589880     0.37800
N2821       N  0.52085443  0.83836747  0.04675750    -0.88800
H2822       H  0.98246261  0.78657495  0.04084505     0.18900
H2823       H  0.58394880  0.77574010  0.46815676     0.18900
N2824       N  0.54813606  0.72394404  0.46385884    -0.87900
H2825       H  0.99868757  0.83678462  0.56063826     0.36200
H2826       H  0.51891035  0.85693866  0.52656046     0.41300
H2827       H  0.53151651  0.70569561  0.96889949     0.41000
H2828       H  0.56966074  0.71570892  0.97601694     0.35800
C2829       C  0.95811720  0.67204413  0.35448830    -0.25900
C2830       C  0.92931940  0.66855801  0.33349781    -0.14000
C2831       C  0.90157166  0.65916997  0.35470789     0.36700
C2832       C  0.90181688  0.66146319  0.39510488    -0.25300
C2833       C  0.92966185  0.66990708  0.41597215    -0.14600
C2834       C  0.95890217  0.67187337  0.39513113     0.37800
N2835       N  0.98944540  0.67331829  0.41474869    -0.88800
H2836       H  0.98061445  0.67314871  0.33924982     0.18900
H2837       H  0.88014755  0.65489666  0.41035500     0.18900
N2838       N  0.87353357  0.64494928  0.33719677    -0.87900
H2839       H  0.50817003  0.67666917  0.39514956     0.36200
H2840       H  0.99363854  0.65135099  0.42817441     0.41300
H2841       H  0.87679570  0.63901834  0.30828604     0.41000
H2842       H  0.85443609  0.66098403  0.33947217     0.35800
C2843       C  0.91620486  0.64469065  0.14543921    -0.25900
C2844       C  0.92521019  0.67258441  0.16578643    -0.14000
C2845       C  0.92729168  0.70164056  0.14412340     0.36700
C2846       C  0.92768287  0.70026936  0.10371319    -0.25300
C2847       C  0.92449784  0.67125444  0.08359090    -0.14600
C2848       C  0.91465884  0.64410928  0.10494704     0.37800
N2849       N  0.90143489  0.61650745  0.08600230    -0.88800
H2850       H  0.90907504  0.62327037  0.16085455     0.18900
H2851       H  0.92915067  0.72261774  0.08793709     0.18900
N2852       N  0.92826641  0.73304614  0.16125829    -0.87900
H2853       H  0.91455541  0.59642656  0.09476057     0.36200
H2854       H  0.87786259  0.61339672  0.09557908     0.41300
H2855       H  0.92495310  0.73246903  0.19097072     0.41000
H2856       H  0.90869084  0.74591682  0.15037961     0.35800
C2857       C  0.92665531  0.67129744  0.53944488     0.30400
C2858       C  0.92813957  0.67171936  0.96030375     0.30400
C2859       C  0.89453130  0.67880430  0.51923310    -0.05800
C2860       C  0.94993451  0.69561425  0.52092601    -0.06600
C2861       C  0.93731526  0.64002870  0.52032237    -0.06400
C2862       C  0.89519383  0.67935823  0.97856656    -0.05800
C2863       C  0.94997460  0.69656518  0.98067573    -0.06500
C2864       C  0.93733107  0.63996718  0.98006979    -0.06400
C2865       C  0.87153004  0.70076029  0.96720608    -0.31800
N2866       N  0.85596187  0.71181920  0.99875392     0.14700
C2867       C  0.87023957  0.69912966  0.53048667    -0.31800
H2868       H  0.86567751  0.70682172  0.55979775     0.16600
C2869       C  0.97125591  0.72044342  0.97009960    -0.30800
N2870       N  0.98571793  0.73203471  0.50246099     0.13400
C2871       C  0.97288373  0.71718682  0.53361009    -0.30800
C2872       C  0.95482473  0.61369061  0.96863485    -0.31100
N2873       N  0.96660425  0.59880597  0.50054883     0.13900
H2874       H  0.96100999  0.60753874  0.93924907     0.16500
C2875       C  0.95679957  0.61514940  0.53209187    -0.31100
H2876       H  0.96543084  0.61090247  0.56123519     0.16500
H2877       H  0.98045576  0.72142094  0.56313929     0.16500
H2878       H  0.86813097  0.71011376  0.93826266     0.16600
H2879       H  0.97633874  0.72865749  0.94108727     0.16500
C2880       C  0.92994274  0.67076287  0.78911488     0.30400
C2881       C  0.92837900  0.67115820  0.70998521     0.30400
C2882       C  0.89993625  0.68537687  0.77014259    -0.05800
C2883       C  0.95693845  0.69042149  0.76912012    -0.06600
C2884       C  0.93304856  0.63769154  0.76976458    -0.06400
C2885       C  0.89879350  0.68465446  0.73018327    -0.05800
C2886       C  0.95652176  0.68976593  0.72875343    -0.06500
C2887       C  0.93253861  0.63781016  0.72894850    -0.06400
C2888       C  0.87238293  0.70209851  0.71855453    -0.31800
N2889       N  0.85796786  0.71407770  0.75040704     0.14700
C2890       C  0.87485861  0.70441335  0.78203142    -0.31800
H2891       H  0.87036277  0.71223775  0.81129464     0.16600
C2892       C  0.98098327  0.70947153  0.71606601    -0.30800
N2893       N  0.99503793  0.72353623  0.74722763     0.13400
C2894       C  0.98061320  0.71221645  0.77964408    -0.30800
C2895       C  0.95261110  0.61308571  0.71780580    -0.31100
N2896       N  0.96389667  0.59748558  0.74935658     0.13900
H2897       H  0.96158961  0.60933425  0.68888485     0.16500
C2898       C  0.95265164  0.61259909  0.78099289    -0.31100
H2899       H  0.96139746  0.60837147  0.81009914     0.16500
H2900       H  0.98592039  0.72078550  0.80847793     0.16500
H2901       H  0.86555278  0.70763235  0.68904461     0.16600
H2902       H  0.98731154  0.71419006  0.68631635     0.16500
C2903       C  0.66930854  0.64539886  0.95886953     0.30400
C2904       C  0.66919018  0.64554245  0.53785052     0.30400
C2905       C  0.63663039  0.63768302  0.97771213    -0.05800
C2906       C  0.69104269  0.62026025  0.97855177    -0.06600
C2907       C  0.67967024  0.67705367  0.97814413    -0.06400
C2908       C  0.63665591  0.63801036  0.51848932    -0.05800
C2909       C  0.69182724  0.62118114  0.51876849    -0.06500
C2910       C  0.68035686  0.67674537  0.51862905    -0.06400
C2911       C  0.61421294  0.61548977  0.53008849    -0.31800
N2912       N  0.60059901  0.60161641  0.99873520     0.14700
C2913       C  0.61441097  0.61442529  0.96691436    -0.31800
H2914       H  0.61140329  0.60485064  0.93805395     0.16600
C2915       C  0.71492757  0.59976781  0.53076742    -0.30800
N2916       N  0.72676490  0.58467692  0.99934885     0.13400
C2917       C  0.71164848  0.59623661  0.96740253    -0.30800
C2918       C  0.70430886  0.69794821  0.52958658    -0.31100
N2919       N  0.71606729  0.71288914  0.99796950     0.13900
H2920       H  0.71410342  0.70052504  0.55849718     0.16500
C2921       C  0.70165750  0.70000777  0.96644792    -0.31100
H2922       H  0.70860391  0.70508625  0.93699560     0.16500
H2923       H  0.71590064  0.58804699  0.93827005     0.16500
H2924       H  0.61096490  0.60703332  0.55941403     0.16600
H2925       H  0.72299895  0.59554358  0.56010349     0.16500
C2926       C  0.66986973  0.64351106  0.70899634     0.30400
C2927       C  0.66940790  0.64506753  0.78794253     0.30400
C2928       C  0.63803482  0.63350783  0.72812100    -0.05800
C2929       C  0.69509405  0.62237856  0.72936731    -0.06600
C2930       C  0.67773034  0.67640224  0.72733334    -0.06400
C2931       C  0.63828836  0.63335158  0.76852072    -0.05800
C2932       C  0.69431917  0.62244459  0.76963405    -0.06500
C2933       C  0.67705162  0.67720040  0.76807662    -0.06400
C2934       C  0.61673465  0.60979384  0.77968430    -0.31800
N2935       N  0.60147344  0.59788613  0.74817301     0.14700
C2936       C  0.61449111  0.61192284  0.71655829    -0.31800
H2937       H  0.60900530  0.60506274  0.68709708     0.16600
C2938       C  0.71835109  0.60222295  0.78214218    -0.30800
N2939       N  0.73471150  0.59153023  0.75095183     0.13400
C2940       C  0.72099340  0.60408490  0.71867456    -0.30800
C2941       C  0.69982509  0.69958087  0.77950118    -0.31100
N2942       N  0.71415699  0.71236079  0.74811322     0.13900
H2943       H  0.70798270  0.70350594  0.80889203     0.16500
C2944       C  0.70146657  0.69803605  0.71642348    -0.31100
H2945       H  0.71130033  0.70037301  0.68765818     0.16500
H2946       H  0.72916684  0.59991045  0.68954204     0.16500
H2947       H  0.61399987  0.60048295  0.80872082     0.16600
H2948       H  0.72383159  0.59565834  0.81170626     0.16500
C2949       C  0.88306812  0.93107087  0.96179447     0.30400
C2950       C  0.88351623  0.93028212  0.54127955     0.30400
C2951       C  0.91545649  0.94045996  0.98155381    -0.05800
C2952       C  0.85940005  0.95350256  0.98179844    -0.06600
C2953       C  0.87627735  0.89830345  0.98109725    -0.06400
C2954       C  0.91524250  0.94075214  0.52201811    -0.05800
C2955       C  0.85962342  0.95348060  0.52194380    -0.06500
C2956       C  0.87585127  0.89832750  0.52139075    -0.06400
C2957       C  0.94286221  0.95641107  0.53401925    -0.31800
N2958       N  0.96077308  0.96378968  0.00257872     0.14700
C2959       C  0.94462773  0.95362538  0.97058977    -0.31800
H2960       H  0.95301277  0.95742581  0.94144866     0.16600
C2961       C  0.83800917  0.97657759  0.53333978    -0.30800
N2962       N  0.82402233  0.98931643  0.00129498     0.13400
C2963       C  0.83722805  0.97571525  0.96965719    -0.30800
C2964       C  0.86110090  0.87035734  0.53305117    -0.31100
N2965       N  0.85339721  0.85291018  0.00123513     0.13900
H2966       H  0.85360584  0.86471637  0.56219876     0.16500
C2967       C  0.86367419  0.86915640  0.96956985    -0.31100
H2968       H  0.85975673  0.86133543  0.94020105     0.16500
H2969       H  0.83132295  0.98178568  0.94001550     0.16500
H2970       H  0.94833757  0.96406895  0.56320436     0.16600
H2971       H  0.83269307  0.98379578  0.56260937     0.16500
C2972       C  0.88276213  0.92998227  0.71180236     0.30400
C2973       C  0.88423301  0.93085124  0.79123172     0.30400
C2974       C  0.91622423  0.93510656  0.73049990    -0.05800
C2975       C  0.86344621  0.95676588  0.73115620    -0.06600
C2976       C  0.87097008  0.89958872  0.73208852    -0.06400
C2977       C  0.91731968  0.93460865  0.77121032    -0.05800
C2978       C  0.86395645  0.95664833  0.77128939    -0.06500
C2979       C  0.87169140  0.89960726  0.77227286    -0.06400
C2980       C  0.94601312  0.94896353  0.78186638    -0.31800
N2981       N  0.96070330  0.96061687  0.74993815     0.14700
C2982       C  0.94252465  0.95282341  0.71873044    -0.31800
H2983       H  0.94630517  0.96228249  0.68994890     0.16600
C2984       C  0.84449322  0.98094916  0.78357056    -0.30800
N2985       N  0.83190361  0.99584690  0.75209768     0.13400
C2986       C  0.84401332  0.98187688  0.71989633    -0.30800
C2987       C  0.85910830  0.87033754  0.78376654    -0.31100
N2988       N  0.84971689  0.85374067  0.75188267     0.13900
H2989       H  0.85574392  0.86193477  0.81304496     0.16500
C2990       C  0.85743451  0.87117715  0.72016454    -0.31100
H2991       H  0.85173843  0.86459024  0.69064429     0.16500
H2992       H  0.83828476  0.98895157  0.69057604     0.16500
H2993       H  0.95465517  0.95280999  0.81094067     0.16600
H2994       H  0.83955949  0.98710456  0.81330597     0.16500
C2995       C  0.64056097  0.88795311  0.96111004     0.30400
C2996       C  0.64316274  0.88786957  0.54032719     0.30400
C2997       C  0.63592472  0.92087775  0.98054472    -0.05800
C2998       C  0.61575569  0.86642462  0.98174007    -0.06600
C2999       C  0.67213619  0.87593732  0.97948117    -0.06400
C3000       C  0.63672499  0.92082000  0.52132876    -0.05800
C3001       C  0.61608018  0.86763330  0.52197290    -0.06500
C3002       C  0.67351898  0.87643032  0.51958766    -0.06400
C3003       C  0.61602349  0.94494167  0.53267301    -0.31800
N3004       N  0.60446114  0.96044816  0.00117558     0.14700
C3005       C  0.61618796  0.94585112  0.96942835    -0.31800
H3006       H  0.60817196  0.95080262  0.94021754     0.16600
C3007       C  0.59238667  0.84710634  0.53488776    -0.30800
N3008       N  0.57945429  0.83179262  0.00389399     0.13400
C3009       C  0.59430136  0.84257504  0.97160759    -0.30800
C3010       C  0.70048200  0.85960677  0.53079813    -0.31100
N3011       N  0.71504327  0.84805594  0.99879109     0.13900
H3012       H  0.70735026  0.85375414  0.56020470     0.16500
C3013       C  0.69778679  0.85762702  0.96731926    -0.31100
H3014       H  0.70211789  0.84977174  0.93802537     0.16500
H3015       H  0.59027537  0.83290015  0.94299587     0.16500
H3016       H  0.60707158  0.94846971  0.56164619     0.16600
H3017       H  0.58607945  0.84241767  0.56463887     0.16500
C3018       C  0.64416830  0.88732340  0.79017198     0.30400
C3019       C  0.64472813  0.88728216  0.71109455     0.30400
C3020       C  0.67678398  0.88012470  0.77151918    -0.05800
C3021       C  0.62261988  0.86168056  0.77048151    -0.06600
C3022       C  0.63324794  0.91849936  0.77047079    -0.06400
C3023       C  0.67724079  0.88091524  0.73087936    -0.05800
C3024       C  0.62253106  0.86204550  0.73013152    -0.06500
C3025       C  0.63303613  0.91830794  0.73016670    -0.06400
C3026       C  0.70151820  0.86065076  0.71939686    -0.31800
N3027       N  0.71556043  0.84752546  0.75095435     0.14700
C3028       C  0.69978871  0.85798367  0.78247229    -0.31800
H3029       H  0.70274363  0.84798948  0.81118885     0.16600
C3030       C  0.60154750  0.83830193  0.71808822    -0.30800
N3031       N  0.59018455  0.82264065  0.74961240     0.13400
C3032       C  0.60272023  0.83675054  0.78175270    -0.30800
C3033       C  0.61141071  0.94150580  0.71845467    -0.31100
N3034       N  0.60003570  0.95682956  0.74996815     0.13900
H3035       H  0.60284669  0.94540113  0.68920803     0.16500
C3036       C  0.61249874  0.94240271  0.78185024    -0.31100
H3037       H  0.60500299  0.94715576  0.81117533     0.16500
H3038       H  0.59762820  0.82924752  0.81103992     0.16500
H3039       H  0.70618525  0.85323754  0.69001077     0.16600
H3040       H  0.59479913  0.83265993  0.68862307     0.16500
O3041       O  0.56868803  0.56394230  0.53181522    -0.72500
O3042       O  0.00026604  0.49504465  0.53417198    -0.73500
O3043       O  0.56931626  0.99533297  0.53327410    -0.62100
O3044       O  0.50082716  0.56298545  0.53286731    -0.70500
O3045       O  0.49991860  0.56230592  0.96872948    -0.70100
O3046       O  0.56850672  0.99492576  0.96916376    -0.61300
O3047       O  0.99971984  0.49444911  0.97007502    -0.73800
O3048       O  0.56776527  0.56336205  0.96770797    -0.72600
Cu3049     Cu  0.53491667  0.52919289  0.53528523     1.04600
Cu3050     Cu  0.53403770  0.52856841  0.96674026     1.04300
C3051       C  0.57831858  0.57517766  0.99943006     0.93700
C3052       C  0.98833183  0.48476387  0.00232133     0.92800
C3053       C  0.57987073  0.98452933  0.00122665     0.85000
C3054       C  0.48983539  0.57356666  0.00072272     0.91200
O3055       O  0.56588942  0.99295033  0.71748683    -0.72500
O3056       O  0.49832955  0.56194921  0.71720805    -0.73500
O3057       O  0.56668825  0.56167570  0.71649338    -0.62100
O3058       O  0.99759171  0.49380454  0.71770168    -0.70500
O3059       O  0.99817762  0.49382771  0.78182565    -0.70100
O3060       O  0.56731685  0.56181382  0.78060231    -0.61300
O3061       O  0.49893956  0.56203191  0.78132795    -0.73800
O3062       O  0.56636881  0.99326229  0.78160618    -0.72600
Cu3063     Cu  0.53216889  0.52755383  0.71499533     1.04600
Cu3064     Cu  0.53278960  0.52773246  0.78354750     1.04300
C3065       C  0.57652619  0.98195880  0.74966318     0.93700
C3066       C  0.98794175  0.57285679  0.74928954     0.92800
C3067       C  0.57767899  0.57275842  0.74839887     0.85000
C3068       C  0.98674525  0.48332333  0.74984300     0.91200
O3069       O  0.75236715  0.74676188  0.53026724    -0.72500
O3070       O  0.82062348  0.81494448  0.53227380    -0.73500
O3071       O  0.75218027  0.81473753  0.53093833    -0.62100
O3072       O  0.82073593  0.74658310  0.53099099    -0.70500
O3073       O  0.82089572  0.74738487  0.96689369    -0.70100
O3074       O  0.75212888  0.81513612  0.96682929    -0.61300
O3075       O  0.82072559  0.81574209  0.96816702    -0.73800
O3076       O  0.75234608  0.74714085  0.96613371    -0.72600
Cu3077     Cu  0.78654595  0.78071132  0.53333787     1.04600
Cu3078     Cu  0.78662797  0.78136608  0.96479169     1.04300
C3079       C  0.74132390  0.73638948  0.99806898     0.93700
C3080       C  0.83115365  0.82648983  0.00053491     0.92800
C3081       C  0.74095474  0.82532574  0.99884037     0.85000
C3082       C  0.83160656  0.73618419  0.99888429     0.91200
O3083       O  0.75120354  0.81354736  0.71865066    -0.72500
O3084       O  0.82049972  0.74680683  0.71827837    -0.73500
O3085       O  0.75173056  0.74569698  0.71705669    -0.62100
O3086       O  0.81909545  0.81484839  0.71941584    -0.70500
O3087       O  0.81899950  0.81438168  0.78355495    -0.70100
O3088       O  0.75166656  0.74476931  0.78117160    -0.61300
O3089       O  0.82054378  0.74629682  0.78241305    -0.73800
O3090       O  0.75097733  0.81256607  0.78278998    -0.72600
Cu3091     Cu  0.78572728  0.78012630  0.71614327     1.04600
Cu3092     Cu  0.78561955  0.77931515  0.78472388     1.04300
C3093       C  0.74015850  0.82359623  0.75078696     0.93700
C3094       C  0.83186271  0.73641805  0.75035572     0.92800
C3095       C  0.74036979  0.73492530  0.74878330     0.85000
C3096       C  0.82899505  0.82619166  0.75166485     0.91200
C3097       C  0.61420996  0.88463680  0.85338292    -0.25900
C3098       C  0.64362037  0.88940188  0.83448797    -0.14000
C3099       C  0.66953672  0.90154280  0.85729645     0.36700
C3100       C  0.66770116  0.90041586  0.89766398    -0.25300
C3101       C  0.63992006  0.88974306  0.91670608    -0.14600
C3102       C  0.61167578  0.88599694  0.89385693     0.37800
N3103       N  0.58034810  0.88539954  0.91103282    -0.88800
H3104       H  0.59256857  0.88142682  0.83634808     0.18900
H3105       H  0.68815162  0.90879398  0.91438307     0.18900
N3106       N  0.69639462  0.91835823  0.84113138    -0.87900
H3107       H  0.56242437  0.88207093  0.89009859     0.36200
H3108       H  0.57614677  0.90771150  0.92347836     0.41300
H3109       H  0.68835189  0.93447860  0.82005798     0.41000
H3110       H  0.71283584  0.90242429  0.82953236     0.35800
C3111       C  0.65363043  0.91476660  0.60503615    -0.25900
C3112       C  0.64649754  0.88644004  0.58457417    -0.14000
C3113       C  0.64616507  0.85724696  0.60616830     0.36700
C3114       C  0.64572528  0.85844195  0.64661352    -0.25300
C3115       C  0.64693924  0.88753900  0.66685286    -0.14600
C3116       C  0.65518549  0.91538405  0.64561226     0.39000
N3117       N  0.66635774  0.94380836  0.66499295    -0.88800
H3118       H  0.65940450  0.93647847  0.58943118     0.18900
H3119       H  0.64563221  0.83602691  0.66236109     0.18900
N3120       N  0.64806683  0.82592400  0.58900705    -0.87900
H3121       H  0.67144074  0.96205069  0.64516103     0.36200
H3122       H  0.68804471  0.93820033  0.67878032     0.41300
H3123       H  0.65032106  0.82648205  0.55911927     0.41000
H3124       H  0.62710206  0.81326182  0.59562088     0.35800
C3125       C  0.89806529  0.95649178  0.89742795    -0.25900
C3126       C  0.88010688  0.93325804  0.91749022    -0.14000
C3127       C  0.85496866  0.91851238  0.89562665     0.36700
C3128       C  0.85747317  0.91744427  0.85524991    -0.25300
C3129       C  0.88235653  0.93334334  0.83552032    -0.14600
C3130       C  0.89820772  0.95768822  0.85684616     0.37800
N3131       N  0.91033207  0.98586244  0.83811949    -0.88800
H3132       H  0.90978826  0.97564801  0.91302348     0.18900
H3133       H  0.83785048  0.90677504  0.83921863     0.18900
N3134       N  0.82466371  0.90897648  0.91189177    -0.87900
H3135       H  0.93344838  0.99048653  0.84876161     0.36200
H3136       H  0.89611200  0.00516614  0.84659402     0.41300
H3137       H  0.82341799  0.91286042  0.94154460     0.41000
H3138       H  0.82065274  0.88470406  0.90626418     0.35800
C3139       C  0.85375072  0.93106001  0.60519670    -0.25900
C3140       C  0.88297003  0.92792936  0.58543692    -0.14000
C3141       C  0.90945534  0.91649385  0.60699571     0.36700
C3142       C  0.90879793  0.91755621  0.64748083    -0.25300
C3143       C  0.88119454  0.92729455  0.66756522    -0.14600
C3144       C  0.85219181  0.92973630  0.64565134     0.37800
N3145       N  0.82071671  0.92831006  0.66246997    -0.88800
H3146       H  0.83147000  0.93284132  0.58911192     0.18900
H3147       H  0.92980819  0.90939368  0.66313307     0.18900
N3148       N  0.93618597  0.90183272  0.58823122    -0.87900
H3149       H  0.80906501  0.95000471  0.65708385     0.36200
H3150       H  0.82125861  0.92435038  0.69216636     0.41300
H3151       H  0.93746148  0.87800742  0.59751296     0.41000
H3152       H  0.95718751  0.91338596  0.59747531     0.35800
C3153       C  0.81028090  0.54666568  0.72739446    -0.25900
C3154       C  0.80786653  0.52049133  0.75273701    -0.14000
C3155       C  0.78147386  0.51838511  0.77807100     0.36700
C3156       C  0.75824692  0.54255759  0.77763897    -0.25300
C3157       C  0.76034946  0.56852331  0.75199975    -0.14600
C3158       C  0.78694616  0.57091440  0.72698981     0.37800
N3159       N  0.79040115  0.59810297  0.70177592    -0.88800
H3160       H  0.83070347  0.54831646  0.70826217     0.18900
H3161       H  0.73766262  0.54052565  0.79645312     0.18900
N3162       N  0.77774579  0.99116665  0.80321623    -0.87900
H3163       H  0.81125355  0.59616733  0.68529092     0.36200
H3164       H  0.79327102  0.61840482  0.71912614     0.41300
H3165       H  0.77420570  0.97099445  0.78581389     0.41000
H3166       H  0.75719665  0.99343958  0.82017471     0.35800
C3167       C  0.74761417  0.53280883  0.97812864    -0.25900
C3168       C  0.75160842  0.56087852  0.99984692    -0.14000
C3169       C  0.77984265  0.56523798  0.52213975     0.36700
C3170       C  0.80321922  0.54109220  0.52277360    -0.25300
C3171       C  0.79923923  0.51312060  0.00092641    -0.14600
C3172       C  0.77104075  0.50871251  0.97872662     0.37800
N3173       N  0.76610739  0.97947132  0.95760578    -0.88800
H3174       H  0.72579406  0.52947002  0.96136977     0.18900
H3175       H  0.82502555  0.54432989  0.53959385     0.18900
N3176       N  0.78496123  0.59445747  0.54325392    -0.87900
H3177       H  0.74407694  0.97990393  0.94292884     0.36200
H3178       H  0.76473151  0.96078324  0.97771873     0.41300
H3179       H  0.78656282  0.61311578  0.52312502     0.41000
H3180       H  0.80690683  0.59386303  0.55811030     0.35800
C3181       C  0.64191185  0.65578572  0.89400281    -0.25900
C3182       C  0.66989063  0.64719635  0.91455461    -0.14000
C3183       C  0.69883396  0.64580473  0.89339065     0.36700
C3184       C  0.69784675  0.64553758  0.85292033    -0.25300
C3185       C  0.66877623  0.64770486  0.83223989    -0.14600
C3186       C  0.64138188  0.65755869  0.85351588     0.37800
N3187       N  0.61430341  0.67303380  0.83580997    -0.88800
H3188       H  0.62048509  0.66256300  0.90947894     0.18900
H3189       H  0.72040793  0.64506362  0.83770868     0.18900
N3190       N  0.72949922  0.64629693  0.91244107    -0.87900
H3191       H  0.59998505  0.65668813  0.82094024     0.36200
H3192       H  0.62243156  0.69086427  0.81695398     0.41300
H3193       H  0.74183175  0.66681573  0.90337634     0.41000
H3194       H  0.74267648  0.62662234  0.90285134     0.35800
C3195       C  0.67174580  0.61629844  0.60211652    -0.25900
C3196       C  0.66753424  0.64545312  0.58225398    -0.14000
C3197       C  0.65683029  0.67196646  0.60438052     0.36700
C3198       C  0.65817849  0.67055847  0.64479076    -0.25300
C3199       C  0.66824052  0.64283847  0.66463682    -0.14600
C3200       C  0.67208055  0.61444810  0.64264535     0.37800
N3201       N  0.67594994  0.58367558  0.66089626    -0.88800
H3202       H  0.67334324  0.59425310  0.58599363     0.18900
H3203       H  0.65047697  0.69137707  0.66082417     0.18900
N3204       N  0.64174250  0.69948122  0.58741278    -0.87900
H3205       H  0.68035714  0.56582316  0.64047537     0.36200
H3206       H  0.65452565  0.57737792  0.67431651     0.41300
H3207       H  0.62405574  0.69198487  0.56781715     0.41000
H3208       H  0.65853852  0.71390607  0.57357337     0.35800
C3209       C  0.53755772  0.80191260  0.72962346    -0.25900
C3210       C  0.56697673  0.79689811  0.74867484    -0.14000
C3211       C  0.57299221  0.76664105  0.76604275     0.36700
C3212       C  0.54881832  0.74299057  0.76539855    -0.25300
C3213       C  0.51943271  0.74812638  0.74634758    -0.14600
C3214       C  0.51393421  0.77796401  0.72809531     0.37800
N3215       N  0.98411889  0.78507293  0.70913567    -0.88800
H3216       H  0.53283907  0.82489324  0.71615014     0.18900
H3217       H  0.55321592  0.72007548  0.77919847     0.18900
N3218       N  0.60335041  0.75872462  0.78361013    -0.87900
H3219       H  0.96536381  0.78074444  0.72841411     0.36200
H3220       H  0.98148979  0.76989302  0.68539340     0.41300
H3221       H  0.62012194  0.77707703  0.78004510     0.41000
H3222       H  0.61262552  0.73911580  0.76866632     0.35800
C3223       C  0.50482308  0.78420538  0.52533468    -0.25900
C3224       C  0.51028473  0.75628346  0.50385672    -0.14000
C3225       C  0.53958578  0.75288806  0.98374174     0.36700
C3226       C  0.56167716  0.77827731  0.98383585    -0.25300
C3227       C  0.55604515  0.80637649  0.50483909    -0.14600
C3228       C  0.52735986  0.80939883  0.52590864     0.37800
N3229       N  0.52085522  0.83836376  0.54676780    -0.88800
H3230       H  0.98245535  0.78658651  0.54082782     0.18900
H3231       H  0.58395508  0.77573256  0.96816779     0.18900
N3232       N  0.54814288  0.72393486  0.96387886    -0.87900
H3233       H  0.99868762  0.83677633  0.06065047     0.36200
H3234       H  0.51891602  0.85694341  0.02655078     0.41300
H3235       H  0.53151292  0.70570230  0.46888118     0.41000
H3236       H  0.56965821  0.71571667  0.47598414     0.35800
C3237       C  0.95811314  0.67204992  0.85448675    -0.25900
C3238       C  0.92931581  0.66855969  0.83349643    -0.14000
C3239       C  0.90156883  0.65917100  0.85470799     0.36700
C3240       C  0.90181522  0.66146377  0.89510572    -0.25300
C3241       C  0.92966010  0.66990986  0.91597244    -0.14600
C3242       C  0.95889910  0.67187972  0.89512954     0.37800
N3243       N  0.98944290  0.67332441  0.91474534    -0.88800
H3244       H  0.98061030  0.67315453  0.83924826     0.18900
H3245       H  0.88014680  0.65489597  0.91035698     0.18900
N3246       N  0.87353000  0.64495113  0.83719758    -0.87900
H3247       H  0.50817294  0.67665401  0.89515013     0.36200
H3248       H  0.99363929  0.65135384  0.92816192     0.41300
H3249       H  0.87679084  0.63902202  0.80828608     0.41000
H3250       H  0.85443279  0.66098596  0.83947532     0.35800
C3251       C  0.91620589  0.64469019  0.64543581    -0.25900
C3252       C  0.92521084  0.67258383  0.66578356    -0.14000
C3253       C  0.92729180  0.70164046  0.64412115     0.36700
C3254       C  0.92768156  0.70027009  0.60371099    -0.25300
C3255       C  0.92449626  0.67125567  0.58358812    -0.14600
C3256       C  0.91465836  0.64410981  0.60494369     0.37800
N3257       N  0.90143435  0.61650819  0.58599847    -0.88800
H3258       H  0.90907718  0.62326935  0.66085072     0.18900
H3259       H  0.92914825  0.72261881  0.58793553     0.18900
N3260       N  0.92826761  0.73304579  0.66125657    -0.87900
H3261       H  0.91455570  0.59642738  0.59475504     0.36200
H3262       H  0.87786259  0.61339643  0.59557671     0.41300
H3263       H  0.92495549  0.73246849  0.69096918     0.41000
H3264       H  0.90869182  0.74591694  0.65037929     0.35800
loop_ 
_geom_bond_atom_site_label_1 
_geom_bond_atom_site_label_2 
_geom_bond_distance 
_geom_bond_site_symmetry_2 
_ccdc_geom_bond_type 
C1            C3   1.538       .  S
C1            C5   1.533       .  S
C1            C4   1.542       .  S
C1          C399   1.530       .  S
C2            C6   1.549       .  S
C2            C8   1.538       .  S
C2            C7   1.545       .  S
C2          C385   1.537       .  S
C3           C11   1.382       .  A
C3          C414   1.407   1_554  A
C4           C15   1.380       .  A
C4          C415   1.393   1_554  A
C5           C19   1.379       .  A
C5          C416   1.392   1_554  A
C6            C9   1.387       .  A
C6          C411   1.407       .  A
C7           C13   1.381       .  A
C7          C412   1.393       .  A
C8           C16   1.379       .  A
C8          C413   1.392       .  A
C9           N10   1.356       .  A
C9           H22   1.082       .  S
N10         C419   1.353       .  A
N10         C226   1.439       .  S
C11         N418   1.353   1_554  A
C11          H12   1.083       .  S
C13         N422   1.357       .  A
C13          H23   1.082       .  S
N14          C15   1.354       .  A
N14         C421   1.357   1_554  A
N14        C2000   1.437       .  S
C15          H21   1.082       .  S
C16         N425   1.355       .  A
C16          H18   1.082       .  S
N17          C19   1.354       .  A
N17         C424   1.355   1_554  A
N17        C2238   1.433       .  S
C19          H20   1.082       .  S
C24          C26   1.535       .  S
C24          C28   1.542       .  S
C24          C27   1.554       .  S
C24         C382   1.538       .  S
C25          C29   1.531       .  S
C25          C31   1.547       .  S
C25          C30   1.544       .  S
C25         C396   1.535       .  S
C26          C34   1.380       .  A
C26          C29   1.383       .  A
C27          C38   1.386       .  A
C27          C30   1.397       .  A
C28          C42   1.384       .  A
C28          C31   1.412       .  A
C29          C32   1.379       .  A
C30          C36   1.380       .  A
C31          C39   1.388       .  A
C32          N33   1.356       .  A
C32          H45   1.082       .  S
N33          C34   1.358       .  A
N33         C238   1.435       .  S
C34          H35   1.082       .  S
C36          N37   1.357       .  A
C36          H46   1.082       .  S
N37          C38   1.359       .  A
N37        C1989   1.442       .  S
C38          H44   1.081       .  S
C39          N40   1.352       .  A
C39          H41   1.082       .  S
N40          C42   1.352       .  A
N40         C210   1.438       .  S
C42          H43   1.083       .  S
C47          C49   1.545       .  S
C47          C51   1.540       .  S
C47          C50   1.543       .  S
C47         C326   1.535       .  S
C48          C52   1.539       .  S
C48          C54   1.533       .  S
C48          C53   1.542       .  S
C48         C340   1.538       .  S
C49          C57   1.388       .  A
C49         C460   1.411       .  A
C50          C61   1.380       .  A
C50         C461   1.392       .  A
C51          C65   1.384       .  A
C51         C462   1.401       .  A
C52          C55   1.384       .  A
C52         C457   1.411   1_554  A
C53          C59   1.377       .  A
C53         C458   1.392   1_554  A
C54          C62   1.382       .  A
C54         C459   1.401   1_554  A
C55         N464   1.351   1_554  A
C55          H68   1.082       .  S
N56          C57   1.353       .  A
N56         C463   1.351       .  A
N56         C195   1.439       .  S
C57          H58   1.082       .  S
C59         N468   1.354   1_554  A
C59          H69   1.081       .  S
N60          C61   1.357       .  A
N60         C467   1.354       .  A
N60         C312   1.437       .  S
C61          H67   1.081       .  S
C62         N471   1.352   1_554  A
C62          H64   1.083       .  S
N63          C65   1.352       .  A
N63         C470   1.352       .  A
N63         C223   1.435       .  S
C65          H66   1.081       .  S
C70          C72   1.541       .  S
C70          C74   1.546       .  S
C70          C73   1.540       .  S
C70         C343   1.536       .  S
C71          C75   1.534       .  S
C71          C77   1.539       .  S
C71          C76   1.546       .  S
C71         C329   1.537       .  S
C72          C80   1.386       .  A
C72          C75   1.397       .  A
C73          C84   1.377       .  A
C73          C76   1.394       .  A
C74          C88   1.390       .  A
C74          C77   1.410       .  A
C75          C78   1.385       .  A
C76          C82   1.379       .  A
C77          C85   1.385       .  A
C78          N79   1.353       .  A
C78          H91   1.083       .  S
N79          C80   1.355       .  A
N79         C211   1.440       .  S
C80          H81   1.082       .  S
C82          N83   1.357       .  A
C82          H92   1.081       .  S
N83          C84   1.356       .  A
N83         C301   1.439       .  S
C84          H90   1.081       .  S
C85          N86   1.350       .  A
C85          H87   1.082       .  S
N86          C88   1.353       .  A
N86         C239   1.439       .  S
C88          H89   1.083       .  S
C93          C95   1.557       .  S
C93          C97   1.546       .  S
C93          C96   1.532       .  S
C93         C270   1.539       .  S
C94          C98   1.545       .  S
C94         C100   1.534       .  S
C94          C99   1.540       .  S
C94         C284   1.531       .  S
C95         C103   1.386       .  A
C95         C506   1.400       .  A
C96         C107   1.374       .  A
C96         C507   1.389       .  A
C97         C111   1.381       .  A
C97         C508   1.394       .  A
C98         C101   1.382       .  A
C98         C503   1.400   1_554  A
C99         C105   1.382       .  A
C99         C504   1.389   1_554  A
C100        C108   1.378       .  A
C100        C505   1.394   1_554  A
C101        N510   1.357       .  A
C101        H114   1.082       .  S
N102        C103   1.359       .  A
N102        C509   1.357       .  A
N102       C1012   1.441       .  S
C103        H104   1.080       .  S
C105        N514   1.357       .  A
C105        H115   1.082       .  S
N106        C107   1.355       .  A
N106        C513   1.357       .  A
N106       C1131   1.435       .  S
C107        H113   1.083       .  S
C108        N517   1.357       .  A
C108        H110   1.083       .  S
N109        C111   1.358       .  A
N109        C516   1.357       .  A
N109        C224   1.437       .  S
C111        H112   1.079       .  S
C116        C118   1.547       .  S
C116        C120   1.529       .  S
C116        C119   1.537       .  S
C116        C287   1.536       .  S
C117        C121   1.554       .  S
C117        C123   1.548       .  S
C117        C122   1.531       .  S
C117        C273   1.538       .  S
C118        C126   1.382       .  A
C118        C121   1.409       .  A
C119        C130   1.381       .  A
C119        C122   1.388       .  A
C120        C134   1.374       .  A
C120        C123   1.390       .  A
C121        C124   1.383       .  A
C122        C128   1.371       .  A
C123        C131   1.386       .  A
C124        N125   1.355       .  A
C124        H137   1.078       .  S
N125        C126   1.354       .  A
N125       C1028   1.437       .  S
C126        H127   1.082       .  S
C128        N129   1.356       .  A
C128        H138   1.082       .  S
N129        C130   1.360       .  A
N129       C1114   1.438       .  S
C130        H136   1.081       .  S
C131        N132   1.358       .  A
C131        H133   1.081       .  S
N132        C134   1.355       .  A
N132        C240   1.435       .  S
C134        H135   1.083       .  S
C139        C141   1.545       .  S
C139        C143   1.542       .  S
C139        C142   1.544       .  S
C139        C245   1.538       .  S
C140        C144   1.546       .  S
C140        C146   1.536       .  S
C140        C145   1.541       .  S
C140        C256   1.537       .  S
C141        C149   1.382       .  A
C141        C552   1.411       .  A
C142        C153   1.379       .  A
C142        C553   1.393       .  A
C143        C157   1.384       .  A
C143        C554   1.388       .  A
C144        C147   1.387       .  A
C144        C549   1.411   1_554  A
C145        C151   1.380       .  A
C145        C550   1.393   1_554  A
C146        C154   1.380       .  A
C146        C551   1.388   1_554  A
C147        N556   1.353       .  A
C147        H160   1.082       .  S
N148        C149   1.352       .  A
N148        C555   1.353       .  A
N148        C197   1.438       .  S
C149        H150   1.082       .  S
C151        N560   1.357       .  A
C151        H161   1.081       .  S
N152        C153   1.355       .  A
N152        C559   1.357       .  A
N152        C779   1.438       .  S
C153        H159   1.082       .  S
C154        N563   1.357   1_554  A
C154        H156   1.082       .  S
N155        C157   1.360       .  A
N155        C562   1.357       .  A
N155        C225   1.440       .  S
C157        H158   1.082       .  S
C162        C164   1.539       .  S
C162        C166   1.537       .  S
C162        C165   1.550       .  S
C162        C242   1.536       .  S
C163        C167   1.537       .  S
C163        C169   1.537       .  S
C163        C168   1.547       .  S
C163        C259   1.534       .  S
C164        C172   1.384       .  A
C164        C167   1.406       .  A
C165        C176   1.385       .  A
C165        C168   1.396       .  A
C166        C180   1.382       .  A
C166        C169   1.394       .  A
C167        C170   1.382       .  A
C168        C174   1.382       .  A
C169        C177   1.383       .  A
C170        N171   1.351       .  A
C170        H183   1.082       .  S
N171        C172   1.351       .  A
N171        C237   1.434       .  S
C172        H173   1.083       .  S
C174        N175   1.357       .  A
C174        H184   1.082       .  S
N175        C176   1.359       .  A
N175        C354   1.442       .  S
C176        H182   1.082       .  S
C177        N178   1.355       .  A
C177        H179   1.083       .  S
N178        C180   1.356       .  A
N178        C209   1.438       .  S
C180        H181   1.082       .  S
O185       Cu193   2.020       .  S
O185        C603   1.280   1_554  A
O186      Cu1825   2.024   1_565  S
O186        C604   1.280       .  A
O187      Cu1009   2.018       .  S
O187        C605   1.279       .  A
O188       Cu193   2.007       .  S
O188        C606   1.278   1_455  A
O189       Cu194   2.006   1_655  S
O189        C198   1.278       .  A
O190      Cu1010   2.014       .  S
O190        C197   1.279       .  A
O191      Cu1826   2.017   1_565  S
O191        C196   1.279       .  A
O192       Cu194   2.016       .  S
O192        C195   1.278       .  A
Cu193      O1818   2.024   1_545  S
Cu193      O1003   2.018   1_545  S
Cu193      Cu602   2.371   1_554  S
Cu194      O1006   2.014   1_545  S
Cu194      O1823   2.017   1_445  S
Cu194      Cu601   2.371       .  S
C195        O593   1.280       .  A
C196        N918   1.441       .  S
C196        O594   1.280       .  A
C197        O595   1.279       .  A
C198       N2057   1.433       .  S
C198        O596   1.278   1_655  A
O199      Cu1023   2.020       .  S
O199        C209   1.280       .  A
O200       Cu207   2.018   1_655  S
O200       C1842   1.279       .  A
O201       Cu207   2.020       .  S
O201        C211   1.279       .  A
O202      Cu1839   2.013   1_565  S
O202        C212   1.279       .  A
O203      Cu1840   2.016   1_565  S
O203        C212   1.279       .  A
O204       Cu208   2.021       .  S
O204        C211   1.280       .  A
O205       Cu208   2.014   1_655  S
O205       C1842   1.278       .  A
O206      Cu1024   2.012       .  S
O206        C209   1.278       .  A
Cu207      O1015   2.020   1_545  S
Cu207      O1834   2.013   1_445  S
Cu207      Cu208   2.371       .  S
Cu208      O1835   2.016   1_445  S
Cu208      O1022   2.012   1_545  S
C210       O1832   1.279       .  A
C210       O1837   1.278       .  A
C212        N941   1.437       .  S
O213       Cu221   2.007       .  S
O213        C631   1.278   1_554  A
O214       Cu221   2.010       .  S
O214        C632   1.278       .  A
O215       Cu221   2.022       .  S
O215        C633   1.280   1_554  A
O216       Cu221   2.020       .  S
O216        C634   1.280   1_554  A
O217       Cu222   2.017       .  S
O217        C226   1.279       .  A
O218       Cu222   2.019       .  S
O218        C225   1.279       .  A
O219       Cu222   2.017       .  S
O219        C224   1.280       .  A
O220       Cu222   2.016       .  S
O220        C223   1.279       .  A
Cu221      Cu630   2.371   1_554  S
Cu222      Cu629   2.371       .  S
C223        O621   1.278       .  A
C224        O622   1.278       .  A
C225        O623   1.280       .  A
C226        O624   1.280       .  A
O227       Cu235   2.010       .  S
O227        C237   1.278       .  A
O228       Cu235   2.013       .  S
O228        C238   1.279       .  A
O229       Cu235   2.013       .  S
O229        C239   1.278       .  A
O230       Cu235   2.006       .  S
O230        C240   1.278       .  A
O231       Cu236   2.015       .  S
O231        C240   1.279       .  A
O232       Cu236   2.019       .  S
O232        C239   1.280       .  A
O233       Cu236   2.010       .  S
O233        C238   1.278       .  A
O234       Cu236   2.007       .  S
O234        C237   1.278       .  A
Cu235      Cu236   2.373       .  S
C241        C242   1.405       .  A
C241        C246   1.406       .  A
C241        H248   1.081       .  S
C242        C243   1.425       .  A
C243        C244   1.400       .  A
C243        N250   1.434       .  S
C244        C245   1.406       .  A
C244        H249   1.083       .  S
C245        C246   1.421       .  A
C246        N247   1.437       .  S
N247        H251   1.045       .  S
N247        H252   1.043       .  S
N250        H253   1.045       .  S
N250        H254   1.040       .  S
C255        C256   1.409       .  A
C255        C260   1.405       .  A
C255        H262   1.081       .  S
C256        C257   1.428       .  A
C257        C258   1.400       .  A
C257        N264   1.440       .  S
C258        C259   1.404       .  A
C258        H263   1.082       .  S
C259        C260   1.416       .  A
C260        N261   1.438       .  S
N261        H265   1.046       .  S
N261        H266   1.046       .  S
N264        H267   1.039       .  S
N264        H268   1.045       .  S
C269        C270   1.407       .  A
C269        C274   1.405       .  A
C269        H276   1.079       .  S
C270        C271   1.426       .  A
C271        C272   1.402       .  A
C271        N278   1.440       .  S
C272        C273   1.408       .  A
C272        H277   1.080       .  S
C273        C274   1.415       .  A
C274        N275   1.433       .  S
N275        H279   1.046       .  S
N275        H280   1.046       .  S
N278        H281   1.041       .  S
N278        H282   1.045       .  S
C283        C284   1.407       .  A
C283        C288   1.402       .  A
C283        H290   1.081       .  S
C284        C285   1.411       .  A
C285        C286   1.402       .  A
C285        N292   1.433       .  S
C286        C287   1.409       .  A
C286        H291   1.082       .  S
C287        C288   1.425       .  A
C288        N289   1.439       .  S
N289        H293   1.045       .  S
N289        H294   1.040       .  S
N292        H295   1.046       .  S
N292        H296   1.045       .  S
C297        C298   1.403       .  A
C297        C302   1.406       .  A
C297        H304   1.083       .  S
C298        C299   1.413       .  A
C298        N945   1.438   1_545  S
C299        C300   1.401       .  A
C299       N1122   1.438   1_545  S
C300        C301   1.402       .  A
C300        H305   1.083       .  S
C301        C302   1.413       .  A
C302        N303   1.437       .  S
N303        H307   1.046       .  S
N303        H308   1.045       .  S
N306       C1115   1.438       .  S
N306        H309   1.046       .  S
N306        H310   1.046       .  S
C311        C312   1.402       .  A
C311        C316   1.404       .  A
C311        H318   1.083       .  S
C312        C721   1.413       .  A
C313        C314   1.404       .  A
C313        C720   1.413   1_554  A
C313        N320   1.437       .  S
C314        C723   1.401       .  A
C314        H319   1.083       .  S
C315        C316   1.410       .  A
C315        C722   1.401       .  A
C315        N922   1.435   1_545  S
C316       N1133   1.437   1_545  S
N317       C1132   1.437       .  S
N317        H321   1.046       .  S
N317        H322   1.046       .  S
N320        H323   1.046       .  S
N320        H324   1.046       .  S
C325        C326   1.408       .  A
C325        C330   1.402       .  A
C325        H332   1.083       .  S
C326        C327   1.416       .  A
C327        C328   1.400       .  A
C327        N334   1.433       .  S
C328        C329   1.405       .  A
C328        H333   1.080       .  S
C329        C330   1.425       .  A
C330        N331   1.435       .  S
N331        H335   1.039       .  S
N331        H336   1.045       .  S
N334        H337   1.045       .  S
N334        H338   1.046       .  S
C339        C340   1.407       .  A
C339        C344   1.404       .  A
C339        H346   1.080       .  S
C340        C341   1.422       .  A
C341        C342   1.400       .  A
C341        N348   1.434       .  S
C342        C343   1.408       .  A
C342        H347   1.083       .  S
C343        C344   1.420       .  A
C344        N345   1.439       .  S
N345        H349   1.046       .  S
N345        H350   1.041       .  S
N348        H351   1.045       .  S
N348        H352   1.040       .  S
C353        C354   1.403       .  A
C353        C358   1.400       .  A
C353        H360   1.084       .  S
C354        C355   1.420       .  A
C355        C356   1.407       .  A
C355        N362   1.438       .  S
C356        C357   1.403       .  A
C356        H361   1.084       .  S
C357        C358   1.414       .  A
C357       N1669   1.442   1_455  S
C358       N1991   1.432   1_455  S
N359       C1990   1.432       .  S
N359        H363   1.045       .  S
N359        H364   1.043       .  S
N362        H365   1.042       .  S
N362        H366   1.046       .  S
C367        C368   1.404       .  A
C367        C372   1.407       .  A
C367       H2006   1.083   1_455  S
C368        C777   1.417   1_554  A
C368       N1646   1.437   1_455  S
C369        C370   1.400       .  A
C369        C776   1.417       .  A
C369        N376   1.439       .  S
C370        C779   1.402       .  A
C370        H375   1.083       .  S
C371        C372   1.410       .  A
C371        C778   1.402   1_554  A
C371        N560   1.438       .  S
C372        N373   1.437       .  S
N373       H2417   1.046   1_455  S
N373        H786   1.046       .  S
H374       C1999   1.083       .  S
N376        H787   1.042       .  S
N376        H788   1.046       .  S
H377       N2413   1.046       .  S
H378        N781   1.046       .  S
H379        N784   1.042       .  S
H380        N784   1.046       .  S
C381        C382   1.405       .  A
C381        C386   1.406       .  A
C381        H388   1.079       .  S
C382        C383   1.426       .  A
C383        C384   1.401       .  A
C383        N390   1.438       .  S
C384        C385   1.406       .  A
C384        H389   1.082       .  S
C385        C386   1.421       .  A
C386        N387   1.439       .  S
N387        H392   1.042       .  S
N387       H2023   1.046       .  S
N390        H393   1.041       .  S
N390        H394   1.045       .  S
H391       N2019   1.046   1_455  S
C395        C396   1.410       .  A
C395        C400   1.402       .  A
C395        H402   1.081       .  S
C396        C397   1.427       .  A
C397        C398   1.399       .  A
C397        N404   1.440       .  S
C398        C399   1.404       .  A
C398        H403   1.081       .  S
C399        C400   1.412       .  A
C400        N401   1.433       .  S
N401        H405   1.046       .  S
N401        H406   1.046       .  S
N404        H407   1.038       .  S
N404        H408   1.046       .  S
C409        C411   1.538       .  S
C409        C413   1.533       .  S
C409        C412   1.542       .  S
C409        C807   1.530       .  S
C410        C414   1.549       .  S
C410        C416   1.538       .  S
C410        C415   1.544       .  S
C410        C793   1.537       .  S
C411        C419   1.382       .  A
C412        C423   1.380       .  A
C413        C427   1.379       .  A
C414        C417   1.387       .  A
C415        C421   1.381       .  A
C416        C424   1.379       .  A
C417        N418   1.356       .  A
C417        H430   1.082       .  S
N418        C634   1.439       .  S
C419        H420   1.083       .  S
C421        H431   1.082       .  S
N422        C423   1.354       .  A
N422       C2408   1.437       .  S
C423        H429   1.082       .  S
C424        H426   1.082       .  S
N425        C427   1.354       .  A
N425       C1830   1.433       .  S
C427        H428   1.082       .  S
C432        C434   1.535       .  S
C432        C436   1.542       .  S
C432        C435   1.554       .  S
C432        C790   1.538       .  S
C433        C437   1.531       .  S
C433        C439   1.547       .  S
C433        C438   1.544       .  S
C433        C804   1.535       .  S
C434        C442   1.380       .  A
C434        C437   1.383       .  A
C435        C446   1.386       .  A
C435        C438   1.397       .  A
C436        C450   1.384       .  A
C436        C439   1.412       .  A
C437        C440   1.379       .  A
C438        C444   1.380       .  A
C439        C447   1.388       .  A
C440        N441   1.356       .  A
C440        H453   1.082       .  S
N441        C442   1.358       .  A
N441        C646   1.435       .  S
C442        H443   1.082       .  S
C444        N445   1.357       .  A
C444        H454   1.082       .  S
N445        C446   1.359       .  A
N445       C2397   1.442       .  S
C446        H452   1.081       .  S
C447        N448   1.352       .  A
C447        H449   1.082       .  S
N448        C450   1.352       .  A
N448        C618   1.438       .  S
C450        H451   1.083       .  S
C455        C457   1.545       .  S
C455        C459   1.540       .  S
C455        C458   1.543       .  S
C455        C734   1.535       .  S
C456        C460   1.539       .  S
C456        C462   1.533       .  S
C456        C461   1.542       .  S
C456        C748   1.538       .  S
C457        C465   1.388       .  A
C458        C469   1.380       .  A
C459        C473   1.384       .  A
C460        C463   1.384       .  A
C461        C467   1.377       .  A
C462        C470   1.382       .  A
C463        H476   1.082       .  S
N464        C465   1.353       .  A
N464        C603   1.439       .  S
C465        H466   1.082       .  S
C467        H477   1.081       .  S
N468        C469   1.357       .  A
N468        C720   1.437       .  S
C469        H475   1.081       .  S
C470        H472   1.083       .  S
N471        C473   1.352       .  A
N471        C631   1.435       .  S
C473        H474   1.081       .  S
C478        C480   1.541       .  S
C478        C482   1.546       .  S
C478        C481   1.540       .  S
C478        C751   1.536       .  S
C479        C483   1.534       .  S
C479        C485   1.539       .  S
C479        C484   1.546       .  S
C479        C737   1.537       .  S
C480        C488   1.386       .  A
C480        C483   1.397       .  A
C481        C492   1.377       .  A
C481        C484   1.394       .  A
C482        C496   1.390       .  A
C482        C485   1.410       .  A
C483        C486   1.385       .  A
C484        C490   1.379       .  A
C485        C493   1.385       .  A
C486        N487   1.353       .  A
C486        H499   1.083       .  S
N487        C488   1.355       .  A
N487        C619   1.440       .  S
C488        H489   1.082       .  S
C490        N491   1.357       .  A
C490        H500   1.081       .  S
N491        C492   1.356       .  A
N491        C709   1.439       .  S
C492        H498   1.081       .  S
C493        N494   1.350       .  A
C493        H495   1.082       .  S
N494        C496   1.353       .  A
N494        C647   1.439       .  S
C496        H497   1.083       .  S
C501        C503   1.557       .  S
C501        C505   1.546       .  S
C501        C504   1.532       .  S
C501        C678   1.539       .  S
C502        C506   1.545       .  S
C502        C508   1.534       .  S
C502        C507   1.540       .  S
C502        C692   1.531       .  S
C503        C511   1.386       .  A
C504        C515   1.374       .  A
C505        C519   1.381       .  A
C506        C509   1.382       .  A
C507        C513   1.382       .  A
C508        C516   1.378       .  A
C509        H522   1.082       .  S
N510        C511   1.359   1_554  A
N510       C1420   1.441       .  S
C511        H512   1.080       .  S
C513        H523   1.082       .  S
N514        C515   1.355   1_554  A
N514       C1539   1.435       .  S
C515        H521   1.083       .  S
C516        H518   1.083       .  S
N517        C519   1.358   1_554  A
N517        C632   1.437       .  S
C519        H520   1.079       .  S
C524        C526   1.547       .  S
C524        C528   1.529       .  S
C524        C527   1.537       .  S
C524        C695   1.536       .  S
C525        C529   1.554       .  S
C525        C531   1.548       .  S
C525        C530   1.531       .  S
C525        C681   1.538       .  S
C526        C534   1.382       .  A
C526        C529   1.409       .  A
C527        C538   1.381       .  A
C527        C530   1.388       .  A
C528        C542   1.374       .  A
C528        C531   1.390       .  A
C529        C532   1.383       .  A
C530        C536   1.371       .  A
C531        C539   1.386       .  A
C532        N533   1.355       .  A
C532        H545   1.078       .  S
N533        C534   1.354       .  A
N533       C1436   1.437       .  S
C534        H535   1.082       .  S
C536        N537   1.356       .  A
C536        H546   1.082       .  S
N537        C538   1.360       .  A
N537       C1522   1.438       .  S
C538        H544   1.081       .  S
C539        N540   1.358       .  A
C539        H541   1.081       .  S
N540        C542   1.355       .  A
N540        C648   1.435       .  S
C542        H543   1.083       .  S
C547        C549   1.545       .  S
C547        C551   1.542       .  S
C547        C550   1.544       .  S
C547        C653   1.538       .  S
C548        C552   1.546       .  S
C548        C554   1.536       .  S
C548        C553   1.540       .  S
C548        C664   1.537       .  S
C549        C557   1.382       .  A
C550        C561   1.379       .  A
C551        C565   1.384       .  A
C552        C555   1.387       .  A
C553        C559   1.380       .  A
C554        C562   1.380       .  A
C555        H568   1.082       .  S
N556        C557   1.352   1_554  A
N556        C605   1.438       .  S
C557        H558   1.082       .  S
C559        H569   1.081       .  S
N560        C561   1.355   1_554  A
C561        H567   1.082       .  S
C562        H564   1.082       .  S
N563        C565   1.360       .  A
N563        C633   1.440       .  S
C565        H566   1.082       .  S
C570        C572   1.539       .  S
C570        C574   1.537       .  S
C570        C573   1.550       .  S
C570        C650   1.536       .  S
C571        C575   1.537       .  S
C571        C577   1.537       .  S
C571        C576   1.547       .  S
C571        C667   1.534       .  S
C572        C580   1.384       .  A
C572        C575   1.406       .  A
C573        C584   1.385       .  A
C573        C576   1.396       .  A
C574        C588   1.382       .  A
C574        C577   1.394       .  A
C575        C578   1.382       .  A
C576        C582   1.382       .  A
C577        C585   1.383       .  A
C578        N579   1.351       .  A
C578        H591   1.082       .  S
N579        C580   1.351       .  A
N579        C645   1.434       .  S
C580        H581   1.083       .  S
C582        N583   1.357       .  A
C582        H592   1.082       .  S
N583        C584   1.359       .  A
N583        C762   1.442       .  S
C584        H590   1.082       .  S
C585        N586   1.355       .  A
C585        H587   1.083       .  S
N586        C588   1.356       .  A
N586        C617   1.438       .  S
C588        H589   1.082       .  S
O593       Cu601   2.020       .  S
O594      Cu2233   2.024   1_565  S
O595      Cu1417   2.018       .  S
O596       Cu601   2.007       .  S
O597       Cu602   2.006   1_655  S
O597        C606   1.278   1_556  A
O598      Cu1418   2.014       .  S
O598        C605   1.279   1_556  A
O599      Cu2234   2.017   1_565  S
O599        C604   1.279   1_556  A
O600       Cu602   2.016       .  S
O600        C603   1.278       .  A
Cu601      O2226   2.024   1_545  S
Cu601      O1411   2.018   1_545  S
Cu602      O1414   2.014   1_545  S
Cu602      O2231   2.017   1_445  S
C604       N1326   1.441       .  S
C606       N1649   1.433       .  S
O607      Cu1431   2.020       .  S
O607        C617   1.280       .  A
O608       Cu615   2.018   1_655  S
O608       C2250   1.279       .  A
O609       Cu615   2.020       .  S
O609        C619   1.279       .  A
O610      Cu2247   2.013   1_565  S
O610        C620   1.279       .  A
O611      Cu2248   2.016   1_565  S
O611        C620   1.279       .  A
O612       Cu616   2.021       .  S
O612        C619   1.280       .  A
O613       Cu616   2.014   1_655  S
O613       C2250   1.278       .  A
O614      Cu1432   2.012       .  S
O614        C617   1.278       .  A
Cu615      O1423   2.020   1_545  S
Cu615      O2242   2.013   1_445  S
Cu615      Cu616   2.371       .  S
Cu616      O2243   2.016   1_445  S
Cu616      O1430   2.012   1_545  S
C618       O2240   1.279       .  A
C618       O2245   1.278       .  A
C620       N1349   1.437       .  S
O621       Cu629   2.007       .  S
O622       Cu629   2.010       .  S
O623       Cu629   2.022       .  S
O624       Cu629   2.020       .  S
O625       Cu630   2.017       .  S
O625        C634   1.279       .  A
O626       Cu630   2.019       .  S
O626        C633   1.279       .  A
O627       Cu630   2.017       .  S
O627        C632   1.280   1_556  A
O628       Cu630   2.016       .  S
O628        C631   1.279       .  A
O635       Cu643   2.010       .  S
O635        C645   1.278       .  A
O636       Cu643   2.013       .  S
O636        C646   1.279       .  A
O637       Cu643   2.013       .  S
O637        C647   1.278       .  A
O638       Cu643   2.006       .  S
O638        C648   1.278       .  A
O639       Cu644   2.015       .  S
O639        C648   1.279       .  A
O640       Cu644   2.019       .  S
O640        C647   1.280       .  A
O641       Cu644   2.010       .  S
O641        C646   1.278       .  A
O642       Cu644   2.007       .  S
O642        C645   1.278       .  A
Cu643      Cu644   2.373       .  S
C649        C650   1.405       .  A
C649        C654   1.406       .  A
C649        H656   1.081       .  S
C650        C651   1.425       .  A
C651        C652   1.400       .  A
C651        N658   1.434       .  S
C652        C653   1.406       .  A
C652        H657   1.083       .  S
C653        C654   1.421       .  A
C654        N655   1.437       .  S
N655        H659   1.045       .  S
N655        H660   1.043       .  S
N658        H661   1.045       .  S
N658        H662   1.040       .  S
C663        C664   1.409       .  A
C663        C668   1.405       .  A
C663        H670   1.081       .  S
C664        C665   1.428       .  A
C665        C666   1.400       .  A
C665        N672   1.440       .  S
C666        C667   1.404       .  A
C666        H671   1.082       .  S
C667        C668   1.416       .  A
C668        N669   1.438       .  S
N669        H673   1.046       .  S
N669        H674   1.046       .  S
N672        H675   1.039       .  S
N672        H676   1.045       .  S
C677        C678   1.407       .  A
C677        C682   1.405       .  A
C677        H684   1.079       .  S
C678        C679   1.426       .  A
C679        C680   1.402       .  A
C679        N686   1.440       .  S
C680        C681   1.408       .  A
C680        H685   1.080       .  S
C681        C682   1.415       .  A
C682        N683   1.433       .  S
N683        H687   1.046       .  S
N683        H688   1.046       .  S
N686        H689   1.041       .  S
N686        H690   1.045       .  S
C691        C692   1.407       .  A
C691        C696   1.402       .  A
C691        H698   1.081       .  S
C692        C693   1.411       .  A
C693        C694   1.402       .  A
C693        N700   1.433       .  S
C694        C695   1.409       .  A
C694        H699   1.082       .  S
C695        C696   1.425       .  A
C696        N697   1.439       .  S
N697        H701   1.045       .  S
N697        H702   1.040       .  S
N700        H703   1.046       .  S
N700        H704   1.045       .  S
C705        C706   1.403       .  A
C705        C710   1.406       .  A
C705        H712   1.083       .  S
C706        C707   1.413       .  A
C706       N1353   1.438   1_545  S
C707        C708   1.401       .  A
C707       N1530   1.438   1_545  S
C708        C709   1.402       .  A
C708        H713   1.083       .  S
C709        C710   1.413       .  A
C710        N711   1.437       .  S
N711        H715   1.046       .  S
N711        H716   1.045       .  S
N714       C1523   1.438       .  S
N714        H717   1.046       .  S
N714        H718   1.046       .  S
C719        C720   1.402       .  A
C719        C724   1.404       .  A
C719        H726   1.083       .  S
C721        C722   1.404       .  A
C721        N728   1.437       .  S
C722        H727   1.083       .  S
C723        C724   1.410   1_554  A
C723       N1330   1.435   1_545  S
C724       N1541   1.437   1_545  S
N725       C1540   1.437       .  S
N725        H729   1.046       .  S
N725        H730   1.046       .  S
N728        H731   1.046       .  S
N728        H732   1.046       .  S
C733        C734   1.408       .  A
C733        C738   1.402       .  A
C733        H740   1.083       .  S
C734        C735   1.416       .  A
C735        C736   1.400       .  A
C735        N742   1.433       .  S
C736        C737   1.405       .  A
C736        H741   1.080       .  S
C737        C738   1.425       .  A
C738        N739   1.435       .  S
N739        H743   1.039       .  S
N739        H744   1.045       .  S
N742        H745   1.045       .  S
N742        H746   1.046       .  S
C747        C748   1.407       .  A
C747        C752   1.404       .  A
C747        H754   1.080       .  S
C748        C749   1.422       .  A
C749        C750   1.400       .  A
C749        N756   1.434       .  S
C750        C751   1.408       .  A
C750        H755   1.083       .  S
C751        C752   1.420       .  A
C752        N753   1.439       .  S
N753        H757   1.046       .  S
N753        H758   1.041       .  S
N756        H759   1.045       .  S
N756        H760   1.040       .  S
C761        C762   1.403       .  A
C761        C766   1.400       .  A
C761        H768   1.084       .  S
C762        C763   1.420       .  A
C763        C764   1.407       .  A
C763        N770   1.438       .  S
C764        C765   1.403       .  A
C764        H769   1.084       .  S
C765        C766   1.414       .  A
C765       N2077   1.441   1_455  S
C766       N2399   1.432   1_455  S
N767       C2398   1.432       .  S
N767        H771   1.045       .  S
N767        H772   1.043       .  S
N770        H773   1.042       .  S
N770        H774   1.046       .  S
C775        C776   1.404       .  A
C775        C780   1.407       .  A
C775       H2414   1.083   1_455  S
C776       N2054   1.437   1_455  S
C777        C778   1.400       .  A
C777        N784   1.439       .  S
C778        H783   1.083       .  S
C779        C780   1.410       .  A
C780        N781   1.437       .  S
N781       H2009   1.046   1_455  S
H782       C2407   1.083       .  S
H785       N2005   1.046       .  S
C789        C790   1.405       .  A
C789        C794   1.406       .  A
C789        H796   1.079       .  S
C790        C791   1.426       .  A
C791        C792   1.401       .  A
C791        N798   1.438       .  S
C792        C793   1.406       .  A
C792        H797   1.082       .  S
C793        C794   1.421       .  A
C794        N795   1.439       .  S
N795       H2431   1.046       .  S
N795        H800   1.042       .  S
N798        H801   1.041       .  S
N798        H802   1.045       .  S
H799       N2427   1.046   1_455  S
C803        C804   1.410       .  A
C803        C808   1.402       .  A
C803        H810   1.081       .  S
C804        C805   1.427       .  A
C805        C806   1.399       .  A
C805        N812   1.440       .  S
C806        C807   1.404       .  A
C806        H811   1.081       .  S
C807        C808   1.412       .  A
C808        N809   1.433       .  S
N809        H813   1.046       .  S
N809        H814   1.046       .  S
N812        H815   1.038       .  S
N812        H816   1.046       .  S
C817        C819   1.538       .  S
C817        C821   1.533       .  S
C817        C820   1.542       .  S
C817       C1215   1.530       .  S
C818        C822   1.549       .  S
C818        C824   1.538       .  S
C818        C823   1.545       .  S
C818       C1201   1.537       .  S
C819        C827   1.382       .  A
C819       C1230   1.407   1_554  A
C820        C831   1.380       .  A
C820       C1231   1.393   1_554  A
C821        C835   1.380       .  A
C821       C1232   1.392   1_554  A
C822       C1227   1.407       .  A
C822        C825   1.387       .  A
C823       C1228   1.393       .  A
C823        C829   1.381       .  A
C824       C1229   1.392       .  A
C824        C832   1.379       .  A
C825        N826   1.356       .  A
C825        H838   1.082       .  S
N826       C1235   1.353       .  A
N826       C1042   1.439       .  S
C827       N1234   1.353   1_554  A
C827        H828   1.083       .  S
C829       N1238   1.357       .  A
C829        H839   1.082       .  S
N830       C1237   1.357   1_554  A
N830        C831   1.354       .  A
N830       C2816   1.437       .  S
C831        H837   1.082       .  S
C832       N1241   1.355       .  A
C832        H834   1.082       .  S
N833       C1240   1.355   1_554  A
N833        C835   1.354       .  A
N833       C3054   1.433       .  S
C835        H836   1.082       .  S
C840        C842   1.535       .  S
C840        C844   1.542       .  S
C840        C843   1.554       .  S
C840       C1198   1.538       .  S
C841        C845   1.531       .  S
C841        C847   1.547       .  S
C841        C846   1.544       .  S
C841       C1212   1.535       .  S
C842        C850   1.380       .  A
C842        C845   1.383       .  A
C843        C854   1.386       .  A
C843        C846   1.397       .  A
C844        C858   1.384       .  A
C844        C847   1.412       .  A
C845        C848   1.379       .  A
C846        C852   1.380       .  A
C847        C855   1.388       .  A
C848        N849   1.356       .  A
C848        H861   1.082       .  S
N849        C850   1.358       .  A
N849       C1054   1.435       .  S
C850        H851   1.082       .  S
C852        N853   1.357       .  A
C852        H862   1.082       .  S
N853        C854   1.359       .  A
N853       C2805   1.442       .  S
C854        H860   1.081       .  S
C855        N856   1.352       .  A
C855        H857   1.082       .  S
N856        C858   1.352       .  A
N856       C1026   1.438       .  S
C858        H859   1.083       .  S
C863        C865   1.545       .  S
C863        C867   1.540       .  S
C863        C866   1.543       .  S
C863       C1142   1.535       .  S
C864        C868   1.539       .  S
C864        C870   1.533       .  S
C864        C869   1.542       .  S
C864       C1156   1.538       .  S
C865        C873   1.388       .  A
C865       C1276   1.411       .  A
C866        C877   1.380       .  A
C866       C1277   1.392       .  A
C867        C881   1.384       .  A
C867       C1278   1.401       .  A
C868       C1273   1.411   1_554  A
C868        C871   1.384       .  A
C869       C1274   1.392   1_554  A
C869        C875   1.377       .  A
C870       C1275   1.401   1_554  A
C870        C878   1.382       .  A
C871       N1280   1.351   1_554  A
C871        H884   1.082       .  S
N872       C1279   1.351       .  A
N872        C873   1.353       .  A
N872       C1011   1.439       .  S
C873        H874   1.082       .  S
C875       N1284   1.354   1_554  A
C875        H885   1.081       .  S
N876       C1283   1.354       .  A
N876        C877   1.357       .  A
N876       C1128   1.437       .  S
C877        H883   1.081       .  S
C878       N1287   1.352   1_554  A
C878        H880   1.083       .  S
N879       C1286   1.352       .  A
N879        C881   1.352       .  A
N879       C1039   1.435       .  S
C881        H882   1.081       .  S
C886        C888   1.541       .  S
C886        C890   1.546       .  S
C886        C889   1.540       .  S
C886       C1159   1.536       .  S
C887        C891   1.534       .  S
C887        C893   1.539       .  S
C887        C892   1.546       .  S
C887       C1145   1.537       .  S
C888        C896   1.386       .  A
C888        C891   1.397       .  A
C889        C900   1.377       .  A
C889        C892   1.394       .  A
C890        C904   1.390       .  A
C890        C893   1.410       .  A
C891        C894   1.385       .  A
C892        C898   1.379       .  A
C893        C901   1.385       .  A
C894        N895   1.353       .  A
C894        H907   1.083       .  S
N895        C896   1.355       .  A
N895       C1027   1.440       .  S
C896        H897   1.082       .  S
C898        N899   1.357       .  A
C898        H908   1.081       .  S
N899        C900   1.356       .  A
N899       C1117   1.439       .  S
C900        H906   1.081       .  S
C901        N902   1.350       .  A
C901        H903   1.082       .  S
N902        C904   1.353       .  A
N902       C1055   1.439       .  S
C904        H905   1.083       .  S
C909        C911   1.557       .  S
C909        C913   1.546       .  S
C909        C912   1.532       .  S
C909       C1086   1.539       .  S
C910        C914   1.545       .  S
C910        C916   1.534       .  S
C910        C915   1.540       .  S
C910       C1100   1.531       .  S
C911        C919   1.386       .  A
C911       C1322   1.400       .  A
C912        C923   1.374       .  A
C912       C1323   1.389       .  A
C913        C927   1.381       .  A
C913       C1324   1.394       .  A
C914       C1319   1.400   1_554  A
C914        C917   1.382       .  A
C915       C1320   1.389   1_554  A
C915        C921   1.382       .  A
C916       C1321   1.394   1_554  A
C916        C924   1.378       .  A
C917       N1326   1.357       .  A
C917        H930   1.082       .  S
N918       C1325   1.357       .  A
N918        C919   1.359       .  A
C919        H920   1.080       .  S
C921       N1330   1.357       .  A
C921        H931   1.082       .  S
N922       C1329   1.357       .  A
N922        C923   1.355       .  A
C923        H929   1.083       .  S
C924       N1333   1.357       .  A
C924        H926   1.083       .  S
N925       C1332   1.357       .  A
N925        C927   1.358       .  A
N925       C1040   1.437       .  S
C927        H928   1.079       .  S
C932        C934   1.547       .  S
C932        C936   1.529       .  S
C932        C935   1.537       .  S
C932       C1103   1.536       .  S
C933        C937   1.554       .  S
C933        C939   1.548       .  S
C933        C938   1.531       .  S
C933       C1089   1.538       .  S
C934        C942   1.382       .  A
C934        C937   1.409       .  A
C935        C946   1.381       .  A
C935        C938   1.388       .  A
C936        C950   1.374       .  A
C936        C939   1.390       .  A
C937        C940   1.383       .  A
C938        C944   1.371       .  A
C939        C947   1.386       .  A
C940        N941   1.355       .  A
C940        H953   1.078       .  S
N941        C942   1.354       .  A
C942        H943   1.082       .  S
C944        N945   1.356       .  A
C944        H954   1.082       .  S
N945        C946   1.360       .  A
C946        H952   1.081       .  S
C947        N948   1.358       .  A
C947        H949   1.081       .  S
N948        C950   1.355       .  A
N948       C1056   1.435       .  S
C950        H951   1.083       .  S
C955        C957   1.545       .  S
C955        C959   1.542       .  S
C955        C958   1.544       .  S
C955       C1061   1.538       .  S
C956        C960   1.546       .  S
C956        C962   1.536       .  S
C956        C961   1.541       .  S
C956       C1072   1.537       .  S
C957        C965   1.382       .  A
C957       C1368   1.411       .  A
C958        C969   1.379       .  A
C958       C1369   1.393       .  A
C959        C973   1.384       .  A
C959       C1370   1.388       .  A
C960       C1365   1.411   1_554  A
C960        C963   1.387       .  A
C961       C1366   1.393   1_554  A
C961        C967   1.380       .  A
C962       C1367   1.388   1_554  A
C962        C970   1.380       .  A
C963       N1372   1.353       .  A
C963        H976   1.082       .  S
N964       C1371   1.353       .  A
N964        C965   1.352       .  A
N964       C1013   1.438       .  S
C965        H966   1.082       .  S
C967       N1376   1.357       .  A
C967        H977   1.081       .  S
N968       C1375   1.357       .  A
N968        C969   1.355       .  A
N968       C1595   1.438       .  S
C969        H975   1.082       .  S
C970       N1379   1.357   1_554  A
C970        H972   1.082       .  S
N971       C1378   1.357       .  A
N971        C973   1.360       .  A
N971       C1041   1.440       .  S
C973        H974   1.082       .  S
C978        C980   1.539       .  S
C978        C982   1.537       .  S
C978        C981   1.550       .  S
C978       C1058   1.536       .  S
C979        C983   1.537       .  S
C979        C985   1.537       .  S
C979        C984   1.547       .  S
C979       C1075   1.534       .  S
C980        C988   1.384       .  A
C980        C983   1.406       .  A
C981        C992   1.385       .  A
C981        C984   1.396       .  A
C982        C996   1.382       .  A
C982        C985   1.394       .  A
C983        C986   1.382       .  A
C984        C990   1.382       .  A
C985        C993   1.383       .  A
C986        N987   1.351       .  A
C986        H999   1.082       .  S
N987        C988   1.351       .  A
N987       C1053   1.434       .  S
C988        H989   1.083       .  S
C990        N991   1.357       .  A
C990       H1000   1.082       .  S
N991        C992   1.359       .  A
N991       C1170   1.442       .  S
C992        H998   1.082       .  S
C993        N994   1.355       .  A
C993        H995   1.083       .  S
N994        C996   1.356       .  A
N994       C1025   1.438       .  S
C996        H997   1.082       .  S
O1001     Cu1009   2.020       .  S
O1001      C1419   1.280   1_554  A
O1002     Cu2641   2.024       .  S
O1002      C1420   1.280       .  A
O1003      C1421   1.279       .  A
O1004     Cu1009   2.007       .  S
O1004      C1422   1.278   1_455  A
O1005     Cu1010   2.006   1_655  S
O1005      C1014   1.278       .  A
O1006      C1013   1.279       .  A
O1007     Cu2642   2.017       .  S
O1007      C1012   1.279       .  A
O1008     Cu1010   2.016       .  S
O1008      C1011   1.278       .  A
Cu1009     O2634   2.024       .  S
Cu1009    Cu1418   2.371   1_554  S
Cu1010     O2639   2.017   1_455  S
Cu1010    Cu1417   2.371       .  S
C1011      O1409   1.280       .  A
C1012      O1410   1.280       .  A
C1013      O1411   1.279       .  A
C1014      N2873   1.433       .  S
C1014      O1412   1.278   1_655  A
O1015      C1025   1.280       .  A
O1016     Cu1023   2.018   1_655  S
O1016      C2658   1.279       .  A
O1017     Cu1023   2.020       .  S
O1017      C1027   1.279       .  A
O1018     Cu2655   2.013       .  S
O1018      C1028   1.279       .  A
O1019     Cu2656   2.017       .  S
O1019      C1028   1.279       .  A
O1020     Cu1024   2.021       .  S
O1020      C1027   1.280       .  A
O1021     Cu1024   2.014   1_655  S
O1021      C2658   1.278       .  A
O1022      C1025   1.278       .  A
Cu1023     O2650   2.013   1_455  S
Cu1023    Cu1024   2.371       .  S
Cu1024     O2651   2.016   1_455  S
C1026      O2648   1.279       .  A
C1026      O2653   1.278       .  A
O1029     Cu1037   2.007       .  S
O1029      C1447   1.278   1_554  A
O1030     Cu1037   2.010       .  S
O1030      C1448   1.278       .  A
O1031     Cu1037   2.022       .  S
O1031      C1449   1.280   1_554  A
O1032     Cu1037   2.020       .  S
O1032      C1450   1.280   1_554  A
O1033     Cu1038   2.017       .  S
O1033      C1042   1.279       .  A
O1034     Cu1038   2.019       .  S
O1034      C1041   1.279       .  A
O1035     Cu1038   2.017       .  S
O1035      C1040   1.280       .  A
O1036     Cu1038   2.016       .  S
O1036      C1039   1.279       .  A
Cu1037    Cu1446   2.371   1_554  S
Cu1038    Cu1445   2.371       .  S
C1039      O1437   1.278       .  A
C1040      O1438   1.278       .  A
C1041      O1439   1.280       .  A
C1042      O1440   1.280       .  A
O1043     Cu1051   2.010       .  S
O1043      C1053   1.278       .  A
O1044     Cu1051   2.013       .  S
O1044      C1054   1.279       .  A
O1045     Cu1051   2.013       .  S
O1045      C1055   1.278       .  A
O1046     Cu1051   2.007       .  S
O1046      C1056   1.278       .  A
O1047     Cu1052   2.015       .  S
O1047      C1056   1.279       .  A
O1048     Cu1052   2.019       .  S
O1048      C1055   1.280       .  A
O1049     Cu1052   2.010       .  S
O1049      C1054   1.278       .  A
O1050     Cu1052   2.007       .  S
O1050      C1053   1.278       .  A
Cu1051    Cu1052   2.373       .  S
C1057      C1058   1.405       .  A
C1057      C1062   1.406       .  A
C1057      H1064   1.081       .  S
C1058      C1059   1.425       .  A
C1059      C1060   1.400       .  A
C1059      N1066   1.434       .  S
C1060      C1061   1.406       .  A
C1060      H1065   1.083       .  S
C1061      C1062   1.421       .  A
C1062      N1063   1.437       .  S
N1063      H1067   1.045       .  S
N1063      H1068   1.043       .  S
N1066      H1069   1.045       .  S
N1066      H1070   1.040       .  S
C1071      C1072   1.409       .  A
C1071      C1076   1.405       .  A
C1071      H1078   1.081       .  S
C1072      C1073   1.428       .  A
C1073      C1074   1.400       .  A
C1073      N1080   1.440       .  S
C1074      C1075   1.404       .  A
C1074      H1079   1.082       .  S
C1075      C1076   1.416       .  A
C1076      N1077   1.438       .  S
N1077      H1081   1.046       .  S
N1077      H1082   1.046       .  S
N1080      H1083   1.039       .  S
N1080      H1084   1.045       .  S
C1085      C1086   1.407       .  A
C1085      C1090   1.405       .  A
C1085      H1092   1.079       .  S
C1086      C1087   1.426       .  A
C1087      C1088   1.402       .  A
C1087      N1094   1.440       .  S
C1088      C1089   1.408       .  A
C1088      H1093   1.080       .  S
C1089      C1090   1.415       .  A
C1090      N1091   1.433       .  S
N1091      H1095   1.046       .  S
N1091      H1096   1.046   1_565  S
N1094      H1097   1.041       .  S
N1094      H1098   1.045       .  S
C1099      C1100   1.407       .  A
C1099      C1104   1.402       .  A
C1099      H1106   1.081       .  S
C1100      C1101   1.411       .  A
C1101      C1102   1.402       .  A
C1101      N1108   1.433       .  S
C1102      C1103   1.409       .  A
C1102      H1107   1.082       .  S
C1103      C1104   1.425       .  A
C1104      N1105   1.439       .  S
N1105      H1109   1.045       .  S
N1105      H1110   1.040       .  S
N1108      H1111   1.046       .  S
N1108      H1112   1.045       .  S
C1113      C1114   1.403       .  A
C1113      C1118   1.406       .  A
C1113      H1120   1.083       .  S
C1114      C1115   1.413       .  A
C1115      C1116   1.401       .  A
C1116      C1117   1.402       .  A
C1116      H1121   1.083       .  S
C1117      C1118   1.413       .  A
C1118      N1119   1.437       .  S
N1119      H1123   1.046       .  S
N1119      H1124   1.045       .  S
N1122      H1125   1.046       .  S
N1122      H1126   1.046       .  S
C1127      C1128   1.402       .  A
C1127      C1132   1.404       .  A
C1127      H1134   1.083       .  S
C1128      C1537   1.413       .  A
C1129      C1536   1.413   1_554  A
C1129      C1130   1.404       .  A
C1129      N1136   1.437       .  S
C1130      C1539   1.401       .  A
C1130      H1135   1.083       .  S
C1131      C1538   1.401       .  A
C1131      C1132   1.410       .  A
N1133      H1137   1.046       .  S
N1133      H1138   1.046       .  S
N1136      H1139   1.046       .  S
N1136      H1140   1.046       .  S
C1141      C1142   1.408       .  A
C1141      C1146   1.402       .  A
C1141      H1148   1.083       .  S
C1142      C1143   1.416       .  A
C1143      C1144   1.400       .  A
C1143      N1150   1.433       .  S
C1144      C1145   1.405       .  A
C1144      H1149   1.080       .  S
C1145      C1146   1.425       .  A
C1146      N1147   1.435       .  S
N1147      H1151   1.039       .  S
N1147      H1152   1.045       .  S
N1150      H1153   1.045       .  S
N1150      H1154   1.046       .  S
C1155      C1156   1.407       .  A
C1155      C1160   1.404       .  A
C1155      H1162   1.080       .  S
C1156      C1157   1.422       .  A
C1157      C1158   1.400       .  A
C1157      N1164   1.434       .  S
C1158      C1159   1.408       .  A
C1158      H1163   1.083       .  S
C1159      C1160   1.420       .  A
C1160      N1161   1.439       .  S
N1161      H1165   1.046       .  S
N1161      H1166   1.041       .  S
N1164      H1167   1.045       .  S
N1164      H1168   1.040       .  S
C1169      C1170   1.403       .  A
C1169      C1174   1.400       .  A
C1169      H1176   1.084       .  S
C1170      C1171   1.420       .  A
C1171      C1172   1.407       .  A
C1171      N1178   1.438       .  S
C1172      C1173   1.403       .  A
C1172      H1177   1.084       .  S
C1173      C1174   1.414       .  A
C1173      N2485   1.442   1_455  S
C1174      N2807   1.432   1_455  S
N1175      C2806   1.432       .  S
N1175      H1179   1.045       .  S
N1175      H1180   1.043       .  S
N1178      H1181   1.042       .  S
N1178      H1182   1.046       .  S
C1183      C1184   1.404       .  A
C1183      C1188   1.407       .  A
C1183      H2822   1.083   1_455  S
C1184      C1593   1.417   1_554  A
C1184      N2462   1.437   1_455  S
C1185      C1592   1.417       .  A
C1185      C1186   1.400       .  A
C1185      N1192   1.439       .  S
C1186      C1595   1.402       .  A
C1186      H1191   1.083       .  S
C1187      C1594   1.402   1_554  A
C1187      C1188   1.410       .  A
C1187      N1376   1.438       .  S
C1188      N1189   1.437       .  S
N1189      H3233   1.046   1_455  S
N1189      H1602   1.046       .  S
H1190      C2815   1.083       .  S
N1192      H1603   1.042       .  S
N1192      H1604   1.046       .  S
H1193      N3229   1.046       .  S
H1194      N1597   1.046       .  S
H1195      N1600   1.042       .  S
H1196      N1600   1.046       .  S
C1197      C1198   1.405       .  A
C1197      C1202   1.406       .  A
C1197      H1204   1.079       .  S
C1198      C1199   1.426       .  A
C1199      C1200   1.401       .  A
C1199      N1206   1.438       .  S
C1200      C1201   1.406       .  A
C1200      H1205   1.082       .  S
C1201      C1202   1.421       .  A
C1202      N1203   1.439       .  S
N1203      H2839   1.046       .  S
N1203      H1208   1.042       .  S
N1206      H1209   1.041       .  S
N1206      H1210   1.045       .  S
H1207      N2835   1.046   1_455  S
C1211      C1212   1.410       .  A
C1211      C1216   1.402       .  A
C1211      H1218   1.081       .  S
C1212      C1213   1.427       .  A
C1213      C1214   1.399       .  A
C1213      N1220   1.440       .  S
C1214      C1215   1.404       .  A
C1214      H1219   1.081       .  S
C1215      C1216   1.412       .  A
C1216      N1217   1.433       .  S
N1217      H1221   1.046       .  S
N1217      H1222   1.046       .  S
N1220      H1223   1.038       .  S
N1220      H1224   1.046       .  S
C1225      C1227   1.538       .  S
C1225      C1229   1.533       .  S
C1225      C1228   1.542       .  S
C1225      C1623   1.530       .  S
C1226      C1230   1.549       .  S
C1226      C1232   1.538       .  S
C1226      C1231   1.545       .  S
C1226      C1609   1.537       .  S
C1227      C1235   1.382       .  A
C1228      C1239   1.380       .  A
C1229      C1243   1.379       .  A
C1230      C1233   1.387       .  A
C1231      C1237   1.381       .  A
C1232      C1240   1.379       .  A
C1233      N1234   1.356       .  A
C1233      H1246   1.082       .  S
N1234      C1450   1.439       .  S
C1235      H1236   1.083       .  S
C1237      H1247   1.082       .  S
N1238      C1239   1.354       .  A
N1238      C3224   1.437       .  S
C1239      H1245   1.082       .  S
C1240      H1242   1.082       .  S
N1241      C1243   1.354       .  A
N1241      C2646   1.433       .  S
C1243      H1244   1.082       .  S
C1248      C1250   1.535       .  S
C1248      C1252   1.542       .  S
C1248      C1251   1.554       .  S
C1248      C1606   1.538       .  S
C1249      C1253   1.531       .  S
C1249      C1255   1.547       .  S
C1249      C1254   1.544       .  S
C1249      C1620   1.535       .  S
C1250      C1258   1.380       .  A
C1250      C1253   1.383       .  A
C1251      C1262   1.386       .  A
C1251      C1254   1.397       .  A
C1252      C1266   1.384       .  A
C1252      C1255   1.412       .  A
C1253      C1256   1.379       .  A
C1254      C1260   1.380       .  A
C1255      C1263   1.388       .  A
C1256      N1257   1.356       .  A
C1256      H1269   1.082       .  S
N1257      C1258   1.358       .  A
N1257      C1462   1.435       .  S
C1258      H1259   1.082       .  S
C1260      N1261   1.357       .  A
C1260      H1270   1.082       .  S
N1261      C1262   1.359       .  A
N1261      C3213   1.442       .  S
C1262      H1268   1.081       .  S
C1263      N1264   1.352       .  A
C1263      H1265   1.082       .  S
N1264      C1266   1.352       .  A
N1264      C1434   1.438       .  S
C1266      H1267   1.083       .  S
C1271      C1273   1.545       .  S
C1271      C1275   1.540       .  S
C1271      C1274   1.543       .  S
C1271      C1550   1.535       .  S
C1272      C1276   1.539       .  S
C1272      C1278   1.533       .  S
C1272      C1277   1.542       .  S
C1272      C1564   1.538       .  S
C1273      C1281   1.388       .  A
C1274      C1285   1.380       .  A
C1275      C1289   1.384       .  A
C1276      C1279   1.384       .  A
C1277      C1283   1.377       .  A
C1278      C1286   1.382       .  A
C1279      H1292   1.082       .  S
N1280      C1281   1.353       .  A
N1280      C1419   1.439       .  S
C1281      H1282   1.082       .  S
C1283      H1293   1.081       .  S
N1284      C1285   1.357       .  A
N1284      C1536   1.437       .  S
C1285      H1291   1.081       .  S
C1286      H1288   1.083       .  S
N1287      C1289   1.352       .  A
N1287      C1447   1.435       .  S
C1289      H1290   1.081       .  S
C1294      C1296   1.541       .  S
C1294      C1298   1.546       .  S
C1294      C1297   1.540       .  S
C1294      C1567   1.536       .  S
C1295      C1299   1.534       .  S
C1295      C1301   1.539       .  S
C1295      C1300   1.546       .  S
C1295      C1553   1.537       .  S
C1296      C1304   1.386       .  A
C1296      C1299   1.397       .  A
C1297      C1308   1.377       .  A
C1297      C1300   1.394       .  A
C1298      C1312   1.390       .  A
C1298      C1301   1.410       .  A
C1299      C1302   1.385       .  A
C1300      C1306   1.379       .  A
C1301      C1309   1.385       .  A
C1302      N1303   1.353       .  A
C1302      H1315   1.083       .  S
N1303      C1304   1.355       .  A
N1303      C1435   1.440       .  S
C1304      H1305   1.082       .  S
C1306      N1307   1.357       .  A
C1306      H1316   1.081       .  S
N1307      C1308   1.356       .  A
N1307      C1525   1.439       .  S
C1308      H1314   1.081       .  S
C1309      N1310   1.350       .  A
C1309      H1311   1.082       .  S
N1310      C1312   1.353       .  A
N1310      C1463   1.439       .  S
C1312      H1313   1.083       .  S
C1317      C1319   1.557       .  S
C1317      C1321   1.546       .  S
C1317      C1320   1.532       .  S
C1317      C1494   1.539       .  S
C1318      C1322   1.545       .  S
C1318      C1324   1.534       .  S
C1318      C1323   1.540       .  S
C1318      C1508   1.531       .  S
C1319      C1327   1.386       .  A
C1320      C1331   1.374       .  A
C1321      C1335   1.381       .  A
C1322      C1325   1.382       .  A
C1323      C1329   1.382       .  A
C1324      C1332   1.378       .  A
C1325      H1338   1.082       .  S
N1326      C1327   1.359   1_554  A
C1327      H1328   1.080       .  S
C1329      H1339   1.082       .  S
N1330      C1331   1.355   1_554  A
C1331      H1337   1.083       .  S
C1332      H1334   1.083       .  S
N1333      C1335   1.358   1_554  A
N1333      C1448   1.437       .  S
C1335      H1336   1.079       .  S
C1340      C1342   1.547       .  S
C1340      C1344   1.529       .  S
C1340      C1343   1.537       .  S
C1340      C1511   1.536       .  S
C1341      C1345   1.554       .  S
C1341      C1347   1.548       .  S
C1341      C1346   1.531       .  S
C1341      C1497   1.538       .  S
C1342      C1350   1.382       .  A
C1342      C1345   1.409       .  A
C1343      C1354   1.381       .  A
C1343      C1346   1.388       .  A
C1344      C1358   1.374       .  A
C1344      C1347   1.390       .  A
C1345      C1348   1.383       .  A
C1346      C1352   1.371       .  A
C1347      C1355   1.386       .  A
C1348      N1349   1.355       .  A
C1348      H1361   1.078       .  S
N1349      C1350   1.354       .  A
C1350      H1351   1.082       .  S
C1352      N1353   1.356       .  A
C1352      H1362   1.082       .  S
N1353      C1354   1.360       .  A
C1354      H1360   1.081       .  S
C1355      N1356   1.358       .  A
C1355      H1357   1.081       .  S
N1356      C1358   1.355       .  A
N1356      C1464   1.435       .  S
C1358      H1359   1.083       .  S
C1363      C1365   1.545       .  S
C1363      C1367   1.542       .  S
C1363      C1366   1.544       .  S
C1363      C1469   1.538       .  S
C1364      C1368   1.546       .  S
C1364      C1370   1.536       .  S
C1364      C1369   1.541       .  S
C1364      C1480   1.537       .  S
C1365      C1373   1.382       .  A
C1366      C1377   1.379       .  A
C1367      C1381   1.384       .  A
C1368      C1371   1.387       .  A
C1369      C1375   1.380       .  A
C1370      C1378   1.380       .  A
C1371      H1384   1.082       .  S
N1372      C1373   1.352   1_554  A
N1372      C1421   1.438       .  S
C1373      H1374   1.082       .  S
C1375      H1385   1.081       .  S
N1376      C1377   1.355   1_554  A
C1377      H1383   1.082       .  S
C1378      H1380   1.082       .  S
N1379      C1381   1.360       .  A
N1379      C1449   1.440       .  S
C1381      H1382   1.082       .  S
C1386      C1388   1.539       .  S
C1386      C1390   1.537       .  S
C1386      C1389   1.550       .  S
C1386      C1466   1.536       .  S
C1387      C1391   1.537       .  S
C1387      C1393   1.537       .  S
C1387      C1392   1.547       .  S
C1387      C1483   1.534       .  S
C1388      C1396   1.384       .  A
C1388      C1391   1.406       .  A
C1389      C1400   1.385       .  A
C1389      C1392   1.396       .  A
C1390      C1404   1.382       .  A
C1390      C1393   1.394       .  A
C1391      C1394   1.382       .  A
C1392      C1398   1.382       .  A
C1393      C1401   1.383       .  A
C1394      N1395   1.351       .  A
C1394      H1407   1.082       .  S
N1395      C1396   1.351       .  A
N1395      C1461   1.434       .  S
C1396      H1397   1.083       .  S
C1398      N1399   1.357       .  A
C1398      H1408   1.082       .  S
N1399      C1400   1.359       .  A
N1399      C1578   1.442       .  S
C1400      H1406   1.082       .  S
C1401      N1402   1.355       .  A
C1401      H1403   1.083       .  S
N1402      C1404   1.356       .  A
N1402      C1433   1.438       .  S
C1404      H1405   1.082       .  S
O1409     Cu1417   2.020       .  S
O1410     Cu3049   2.024       .  S
O1412     Cu1417   2.007       .  S
O1413     Cu1418   2.006   1_655  S
O1413      C1422   1.278   1_556  A
O1414      C1421   1.279   1_556  A
O1415     Cu3050   2.017       .  S
O1415      C1420   1.279   1_556  A
O1416     Cu1418   2.016       .  S
O1416      C1419   1.279       .  A
Cu1417     O3042   2.024       .  S
Cu1418     O3047   2.017   1_455  S
C1422      N2465   1.433       .  S
O1423      C1433   1.280       .  A
O1424     Cu1431   2.018   1_655  S
O1424      C3066   1.279       .  A
O1425     Cu1431   2.020       .  S
O1425      C1435   1.279       .  A
O1426     Cu3063   2.013       .  S
O1426      C1436   1.279       .  A
O1427     Cu3064   2.017       .  S
O1427      C1436   1.279       .  A
O1428     Cu1432   2.021       .  S
O1428      C1435   1.280       .  A
O1429     Cu1432   2.014   1_655  S
O1429      C3066   1.278       .  A
O1430      C1433   1.278       .  A
Cu1431     O3058   2.013   1_455  S
Cu1431    Cu1432   2.371       .  S
Cu1432     O3059   2.016   1_455  S
C1434      O3056   1.279       .  A
C1434      O3061   1.278       .  A
O1437     Cu1445   2.007       .  S
O1438     Cu1445   2.010       .  S
O1439     Cu1445   2.022       .  S
O1440     Cu1445   2.020       .  S
O1441     Cu1446   2.017       .  S
O1441      C1450   1.279       .  A
O1442     Cu1446   2.019       .  S
O1442      C1449   1.279       .  A
O1443     Cu1446   2.017       .  S
O1443      C1448   1.280   1_556  A
O1444     Cu1446   2.016       .  S
O1444      C1447   1.279       .  A
O1451     Cu1459   2.010       .  S
O1451      C1461   1.278       .  A
O1452     Cu1459   2.013       .  S
O1452      C1462   1.279       .  A
O1453     Cu1459   2.013       .  S
O1453      C1463   1.278       .  A
O1454     Cu1459   2.007       .  S
O1454      C1464   1.278       .  A
O1455     Cu1460   2.015       .  S
O1455      C1464   1.279       .  A
O1456     Cu1460   2.019       .  S
O1456      C1463   1.280       .  A
O1457     Cu1460   2.010       .  S
O1457      C1462   1.278       .  A
O1458     Cu1460   2.007       .  S
O1458      C1461   1.278       .  A
Cu1459    Cu1460   2.373       .  S
C1465      C1466   1.405       .  A
C1465      C1470   1.406       .  A
C1465      H1472   1.081       .  S
C1466      C1467   1.425       .  A
C1467      C1468   1.400       .  A
C1467      N1474   1.434       .  S
C1468      C1469   1.406       .  A
C1468      H1473   1.083       .  S
C1469      C1470   1.421       .  A
C1470      N1471   1.437       .  S
N1471      H1475   1.045       .  S
N1471      H1476   1.043       .  S
N1474      H1477   1.045       .  S
N1474      H1478   1.040       .  S
C1479      C1480   1.409       .  A
C1479      C1484   1.405       .  A
C1479      H1486   1.081       .  S
C1480      C1481   1.428       .  A
C1481      C1482   1.400       .  A
C1481      N1488   1.440       .  S
C1482      C1483   1.404       .  A
C1482      H1487   1.082       .  S
C1483      C1484   1.416       .  A
C1484      N1485   1.438       .  S
N1485      H1489   1.046       .  S
N1485      H1490   1.046       .  S
N1488      H1491   1.039       .  S
N1488      H1492   1.045       .  S
C1493      C1494   1.407       .  A
C1493      C1498   1.405       .  A
C1493      H1500   1.079       .  S
C1494      C1495   1.426       .  A
C1495      C1496   1.402       .  A
C1495      N1502   1.440       .  S
C1496      C1497   1.408       .  A
C1496      H1501   1.080       .  S
C1497      C1498   1.415       .  A
C1498      N1499   1.433       .  S
N1499      H1503   1.046       .  S
N1499      H1504   1.046   1_565  S
N1502      H1505   1.041       .  S
N1502      H1506   1.045       .  S
C1507      C1508   1.407       .  A
C1507      C1512   1.402       .  A
C1507      H1514   1.081       .  S
C1508      C1509   1.411       .  A
C1509      C1510   1.402       .  A
C1509      N1516   1.433       .  S
C1510      C1511   1.409       .  A
C1510      H1515   1.082       .  S
C1511      C1512   1.425       .  A
C1512      N1513   1.439       .  S
N1513      H1517   1.045       .  S
N1513      H1518   1.040       .  S
N1516      H1519   1.046       .  S
N1516      H1520   1.045       .  S
C1521      C1522   1.403       .  A
C1521      C1526   1.406       .  A
C1521      H1528   1.083       .  S
C1522      C1523   1.413       .  A
C1523      C1524   1.401       .  A
C1524      C1525   1.402       .  A
C1524      H1529   1.083       .  S
C1525      C1526   1.413       .  A
C1526      N1527   1.437       .  S
N1527      H1531   1.046       .  S
N1527      H1532   1.045       .  S
N1530      H1533   1.046       .  S
N1530      H1534   1.046       .  S
C1535      C1536   1.402       .  A
C1535      C1540   1.404       .  A
C1535      H1542   1.083       .  S
C1537      C1538   1.404       .  A
C1537      N1544   1.437       .  S
C1538      H1543   1.083       .  S
C1539      C1540   1.410   1_554  A
N1541      H1545   1.046       .  S
N1541      H1546   1.046       .  S
N1544      H1547   1.046       .  S
N1544      H1548   1.046       .  S
C1549      C1550   1.408       .  A
C1549      C1554   1.402       .  A
C1549      H1556   1.083       .  S
C1550      C1551   1.416       .  A
C1551      C1552   1.400       .  A
C1551      N1558   1.433       .  S
C1552      C1553   1.405       .  A
C1552      H1557   1.080       .  S
C1553      C1554   1.425       .  A
C1554      N1555   1.435       .  S
N1555      H1559   1.039       .  S
N1555      H1560   1.045       .  S
N1558      H1561   1.045       .  S
N1558      H1562   1.046       .  S
C1563      C1564   1.407       .  A
C1563      C1568   1.404       .  A
C1563      H1570   1.080       .  S
C1564      C1565   1.422       .  A
C1565      C1566   1.400       .  A
C1565      N1572   1.434       .  S
C1566      C1567   1.408       .  A
C1566      H1571   1.083       .  S
C1567      C1568   1.420       .  A
C1568      N1569   1.439       .  S
N1569      H1573   1.046       .  S
N1569      H1574   1.041       .  S
N1572      H1575   1.045       .  S
N1572      H1576   1.040       .  S
C1577      C1578   1.403       .  A
C1577      C1582   1.400       .  A
C1577      H1584   1.084       .  S
C1578      C1579   1.420       .  A
C1579      C1580   1.407       .  A
C1579      N1586   1.438       .  S
C1580      C1581   1.403       .  A
C1580      H1585   1.084       .  S
C1581      C1582   1.414       .  A
C1581      N2893   1.442   1_455  S
C1582      N3215   1.432   1_455  S
N1583      C3214   1.432       .  S
N1583      H1587   1.045       .  S
N1583      H1588   1.043       .  S
N1586      H1589   1.042       .  S
N1586      H1590   1.046       .  S
C1591      C1592   1.404       .  A
C1591      C1596   1.407       .  A
C1591      H3230   1.083   1_455  S
C1592      N2870   1.437   1_455  S
C1593      C1594   1.400       .  A
C1593      N1600   1.439       .  S
C1594      H1599   1.083       .  S
C1595      C1596   1.410       .  A
C1596      N1597   1.437       .  S
N1597      H2825   1.046   1_455  S
H1598      C3223   1.083       .  S
H1601      N2821   1.046       .  S
C1605      C1606   1.405       .  A
C1605      C1610   1.406       .  A
C1605      H1612   1.079       .  S
C1606      C1607   1.426       .  A
C1607      C1608   1.401       .  A
C1607      N1614   1.438       .  S
C1608      C1609   1.406       .  A
C1608      H1613   1.082       .  S
C1609      C1610   1.421       .  A
C1610      N1611   1.439       .  S
N1611      H3247   1.046       .  S
N1611      H1616   1.042       .  S
N1614      H1617   1.041       .  S
N1614      H1618   1.045       .  S
H1615      N3243   1.046   1_455  S
C1619      C1620   1.410       .  A
C1619      C1624   1.402       .  A
C1619      H1626   1.081       .  S
C1620      C1621   1.427       .  A
C1621      C1622   1.399       .  A
C1621      N1628   1.440       .  S
C1622      C1623   1.404       .  A
C1622      H1627   1.081       .  S
C1623      C1624   1.412       .  A
C1624      N1625   1.433       .  S
N1625      H1629   1.046       .  S
N1625      H1630   1.046       .  S
N1628      H1631   1.038       .  S
N1628      H1632   1.046       .  S
C1633      C1635   1.538       .  S
C1633      C1637   1.533       .  S
C1633      C1636   1.542       .  S
C1633      C2031   1.530       .  S
C1634      C1638   1.549       .  S
C1634      C1640   1.538       .  S
C1634      C1639   1.545       .  S
C1634      C2017   1.537       .  S
C1635      C1643   1.382       .  A
C1635      C2046   1.407   1_554  A
C1636      C1647   1.380       .  A
C1636      C2047   1.393   1_554  A
C1637      C1651   1.379       .  A
C1637      C2048   1.392   1_554  A
C1638      C2043   1.407       .  A
C1638      C1641   1.387       .  A
C1639      C2044   1.393       .  A
C1639      C1645   1.381       .  A
C1640      C2045   1.392       .  A
C1640      C1648   1.379       .  A
C1641      N1642   1.356       .  A
C1641      H1654   1.082       .  S
N1642      C2051   1.353       .  A
N1642      C1858   1.439       .  S
C1643      N2050   1.353   1_554  A
C1643      H1644   1.083       .  S
C1645      N2054   1.357       .  A
C1645      H1655   1.082       .  S
N1646      C2053   1.357   1_554  A
N1646      C1647   1.354       .  A
C1647      H1653   1.082       .  S
C1648      N2057   1.355       .  A
C1648      H1650   1.082       .  S
N1649      C2056   1.355   1_554  A
N1649      C1651   1.354       .  A
C1651      H1652   1.082       .  S
C1656      C1658   1.535       .  S
C1656      C1660   1.542       .  S
C1656      C1659   1.554       .  S
C1656      C2014   1.538       .  S
C1657      C1661   1.531       .  S
C1657      C1663   1.547       .  S
C1657      C1662   1.544       .  S
C1657      C2028   1.535       .  S
C1658      C1666   1.380       .  A
C1658      C1661   1.383       .  A
C1659      C1670   1.386       .  A
C1659      C1662   1.397       .  A
C1660      C1674   1.384       .  A
C1660      C1663   1.412       .  A
C1661      C1664   1.379       .  A
C1662      C1668   1.380       .  A
C1663      C1671   1.388       .  A
C1664      N1665   1.356       .  A
C1664      H1677   1.082       .  S
N1665      C1666   1.358       .  A
N1665      C1870   1.435       .  S
C1666      H1667   1.082       .  S
C1668      N1669   1.357       .  A
C1668      H1678   1.082       .  S
N1669      C1670   1.359       .  A
C1670      H1676   1.081       .  S
C1671      N1672   1.352       .  A
C1671      H1673   1.082       .  S
N1672      C1674   1.352       .  A
N1672      C1842   1.438       .  S
C1674      H1675   1.083       .  S
C1679      C1681   1.545       .  S
C1679      C1683   1.540       .  S
C1679      C1682   1.543       .  S
C1679      C1958   1.535       .  S
C1680      C1684   1.539       .  S
C1680      C1686   1.533       .  S
C1680      C1685   1.542       .  S
C1680      C1972   1.538       .  S
C1681      C1689   1.388       .  A
C1681      C2092   1.411       .  A
C1682      C1693   1.380       .  A
C1682      C2093   1.392       .  A
C1683      C1697   1.384       .  A
C1683      C2094   1.401       .  A
C1684      C2089   1.411   1_554  A
C1684      C1687   1.384       .  A
C1685      C2090   1.392   1_554  A
C1685      C1691   1.377       .  A
C1686      C2091   1.401   1_554  A
C1686      C1694   1.382       .  A
C1687      N2096   1.351   1_554  A
C1687      H1700   1.082       .  S
N1688      C2095   1.351       .  A
N1688      C1689   1.353       .  A
N1688      C1827   1.439       .  S
C1689      H1690   1.082       .  S
C1691      N2100   1.354   1_554  A
C1691      H1701   1.081       .  S
N1692      C2099   1.354       .  A
N1692      C1693   1.357       .  A
N1692      C1944   1.437       .  S
C1693      H1699   1.081       .  S
C1694      N2103   1.352   1_554  A
C1694      H1696   1.083       .  S
N1695      C2102   1.352       .  A
N1695      C1697   1.352       .  A
N1695      C1855   1.435       .  S
C1697      H1698   1.081       .  S
C1702      C1704   1.541       .  S
C1702      C1706   1.546       .  S
C1702      C1705   1.540       .  S
C1702      C1975   1.536       .  S
C1703      C1707   1.534       .  S
C1703      C1709   1.539       .  S
C1703      C1708   1.546       .  S
C1703      C1961   1.537       .  S
C1704      C1712   1.386       .  A
C1704      C1707   1.397       .  A
C1705      C1716   1.377       .  A
C1705      C1708   1.394       .  A
C1706      C1720   1.390       .  A
C1706      C1709   1.410       .  A
C1707      C1710   1.385       .  A
C1708      C1714   1.379       .  A
C1709      C1717   1.385       .  A
C1710      N1711   1.353       .  A
C1710      H1723   1.083       .  S
N1711      C1712   1.355       .  A
N1711      C1843   1.440       .  S
C1712      H1713   1.082       .  S
C1714      N1715   1.357       .  A
C1714      H1724   1.081       .  S
N1715      C1716   1.356       .  A
N1715      C1933   1.439       .  S
C1716      H1722   1.081       .  S
C1717      N1718   1.350       .  A
C1717      H1719   1.082       .  S
N1718      C1720   1.353       .  A
N1718      C1871   1.439       .  S
C1720      H1721   1.083       .  S
C1725      C1727   1.557       .  S
C1725      C1729   1.546       .  S
C1725      C1728   1.532       .  S
C1725      C1902   1.539       .  S
C1726      C1730   1.545       .  S
C1726      C1732   1.534       .  S
C1726      C1731   1.540       .  S
C1726      C1916   1.531       .  S
C1727      C1735   1.386       .  A
C1727      C2138   1.400       .  A
C1728      C1739   1.374       .  A
C1728      C2139   1.389       .  A
C1729      C1743   1.381       .  A
C1729      C2140   1.394       .  A
C1730      C2135   1.400   1_554  A
C1730      C1733   1.382       .  A
C1731      C2136   1.389   1_554  A
C1731      C1737   1.382       .  A
C1732      C2137   1.394   1_554  A
C1732      C1740   1.378       .  A
C1733      N2142   1.357       .  A
C1733      H1746   1.082       .  S
N1734      C2141   1.357       .  A
N1734      C1735   1.359       .  A
N1734      C2644   1.441       .  S
C1735      H1736   1.080       .  S
C1737      N2146   1.357       .  A
C1737      H1747   1.082       .  S
N1738      C2145   1.357       .  A
N1738      C1739   1.355       .  A
N1738      C2763   1.435       .  S
C1739      H1745   1.083       .  S
C1740      N2149   1.357       .  A
C1740      H1742   1.083       .  S
N1741      C2148   1.357       .  A
N1741      C1743   1.358       .  A
N1741      C1856   1.437       .  S
C1743      H1744   1.079       .  S
C1748      C1750   1.547       .  S
C1748      C1752   1.529       .  S
C1748      C1751   1.537       .  S
C1748      C1919   1.536       .  S
C1749      C1753   1.554       .  S
C1749      C1755   1.548       .  S
C1749      C1754   1.531       .  S
C1749      C1905   1.538       .  S
C1750      C1758   1.382       .  A
C1750      C1753   1.409       .  A
C1751      C1762   1.381       .  A
C1751      C1754   1.388       .  A
C1752      C1766   1.374       .  A
C1752      C1755   1.390       .  A
C1753      C1756   1.383       .  A
C1754      C1760   1.371       .  A
C1755      C1763   1.386       .  A
C1756      N1757   1.355       .  A
C1756      H1769   1.078       .  S
N1757      C1758   1.354       .  A
N1757      C2660   1.437       .  S
C1758      H1759   1.082       .  S
C1760      N1761   1.356       .  A
C1760      H1770   1.082       .  S
N1761      C1762   1.360       .  A
N1761      C2746   1.438       .  S
C1762      H1768   1.081       .  S
C1763      N1764   1.358       .  A
C1763      H1765   1.081       .  S
N1764      C1766   1.355       .  A
N1764      C1872   1.435       .  S
C1766      H1767   1.083       .  S
C1771      C1773   1.545       .  S
C1771      C1775   1.542       .  S
C1771      C1774   1.544       .  S
C1771      C1877   1.538       .  S
C1772      C1776   1.546       .  S
C1772      C1778   1.536       .  S
C1772      C1777   1.541       .  S
C1772      C1888   1.537       .  S
C1773      C1781   1.382       .  A
C1773      C2184   1.411       .  A
C1774      C1785   1.379       .  A
C1774      C2185   1.393       .  A
C1775      C1789   1.384       .  A
C1775      C2186   1.388       .  A
C1776      C2181   1.411   1_554  A
C1776      C1779   1.387       .  A
C1777      C2182   1.393   1_554  A
C1777      C1783   1.380       .  A
C1778      C2183   1.388   1_554  A
C1778      C1786   1.380       .  A
C1779      N2188   1.353       .  A
C1779      H1792   1.082       .  S
N1780      C2187   1.353       .  A
N1780      C1781   1.352       .  A
N1780      C1829   1.438       .  S
C1781      H1782   1.082       .  S
C1783      N2192   1.357       .  A
C1783      H1793   1.081       .  S
N1784      C2191   1.357       .  A
N1784      C1785   1.355       .  A
N1784      C2411   1.438       .  S
C1785      H1791   1.082       .  S
C1786      N2195   1.357   1_554  A
C1786      H1788   1.082       .  S
N1787      C2194   1.357       .  A
N1787      C1789   1.360       .  A
N1787      C1857   1.440       .  S
C1789      H1790   1.082       .  S
C1794      C1796   1.539       .  S
C1794      C1798   1.537       .  S
C1794      C1797   1.550       .  S
C1794      C1874   1.536       .  S
C1795      C1799   1.537       .  S
C1795      C1801   1.537       .  S
C1795      C1800   1.547       .  S
C1795      C1891   1.534       .  S
C1796      C1804   1.384       .  A
C1796      C1799   1.406       .  A
C1797      C1808   1.385       .  A
C1797      C1800   1.396       .  A
C1798      C1812   1.382       .  A
C1798      C1801   1.394       .  A
C1799      C1802   1.382       .  A
C1800      C1806   1.382       .  A
C1801      C1809   1.383       .  A
C1802      N1803   1.351       .  A
C1802      H1815   1.082       .  S
N1803      C1804   1.351       .  A
N1803      C1869   1.434       .  S
C1804      H1805   1.083       .  S
C1806      N1807   1.357       .  A
C1806      H1816   1.082       .  S
N1807      C1808   1.359       .  A
N1807      C1986   1.442       .  S
C1808      H1814   1.082       .  S
C1809      N1810   1.355       .  A
C1809      H1811   1.083       .  S
N1810      C1812   1.356       .  A
N1810      C1841   1.438       .  S
C1812      H1813   1.082       .  S
O1817     Cu1825   2.020       .  S
O1817      C2235   1.280   1_554  A
O1818      C2236   1.280   1_455  A
O1819     Cu2641   2.018       .  S
O1819      C2237   1.279       .  A
O1820     Cu1825   2.007       .  S
O1820      C2238   1.278       .  A
O1821     Cu1826   2.006       .  S
O1821      C1830   1.278       .  A
O1822     Cu2642   2.014       .  S
O1822      C1829   1.279       .  A
O1823      C1828   1.279       .  A
O1824     Cu1826   2.016       .  S
O1824      C1827   1.278       .  A
Cu1825     O2635   2.018   1_545  S
Cu1825    Cu2234   2.371   1_554  S
Cu1826     O2638   2.014   1_545  S
Cu1826    Cu2233   2.371       .  S
C1827      O2225   1.280       .  A
C1828      N2550   1.441       .  S
C1828      O2226   1.280   1_655  A
C1829      O2227   1.279       .  A
C1830      O2228   1.278       .  A
O1831     Cu2655   2.020       .  S
O1831      C1841   1.280       .  A
O1832     Cu1839   2.018       .  S
O1833     Cu1839   2.020       .  S
O1833      C1843   1.279       .  A
O1834      C1844   1.279       .  A
O1835      C1844   1.279       .  A
O1836     Cu1840   2.021       .  S
O1836      C1843   1.280       .  A
O1837     Cu1840   2.014       .  S
O1838     Cu2656   2.012       .  S
O1838      C1841   1.278       .  A
Cu1839     O2647   2.020   1_545  S
Cu1839    Cu1840   2.371       .  S
Cu1840     O2654   2.012   1_545  S
C1844      N2573   1.437       .  S
O1845     Cu1853   2.007       .  S
O1845      C2263   1.278   1_554  A
O1846     Cu1853   2.010       .  S
O1846      C2264   1.278       .  A
O1847     Cu1853   2.022       .  S
O1847      C2265   1.280   1_554  A
O1848     Cu1853   2.020       .  S
O1848      C2266   1.280   1_554  A
O1849     Cu1854   2.017       .  S
O1849      C1858   1.279       .  A
O1850     Cu1854   2.019       .  S
O1850      C1857   1.279       .  A
O1851     Cu1854   2.017       .  S
O1851      C1856   1.280       .  A
O1852     Cu1854   2.016       .  S
O1852      C1855   1.279       .  A
Cu1853    Cu2262   2.371   1_554  S
Cu1854    Cu2261   2.371       .  S
C1855      O2253   1.278       .  A
C1856      O2254   1.278       .  A
C1857      O2255   1.280       .  A
C1858      O2256   1.280       .  A
O1859     Cu1867   2.010       .  S
O1859      C1869   1.278       .  A
O1860     Cu1867   2.013       .  S
O1860      C1870   1.279       .  A
O1861     Cu1867   2.013       .  S
O1861      C1871   1.278       .  A
O1862     Cu1867   2.006       .  S
O1862      C1872   1.278       .  A
O1863     Cu1868   2.015       .  S
O1863      C1872   1.279       .  A
O1864     Cu1868   2.019       .  S
O1864      C1871   1.280       .  A
O1865     Cu1868   2.010       .  S
O1865      C1870   1.278       .  A
O1866     Cu1868   2.007       .  S
O1866      C1869   1.278       .  A
Cu1867    Cu1868   2.373       .  S
C1873      C1874   1.405       .  A
C1873      C1878   1.406       .  A
C1873      H1880   1.081       .  S
C1874      C1875   1.425       .  A
C1875      C1876   1.400       .  A
C1875      N1882   1.434       .  S
C1876      C1877   1.406       .  A
C1876      H1881   1.083       .  S
C1877      C1878   1.421       .  A
C1878      N1879   1.437       .  S
N1879      H1883   1.045       .  S
N1879      H1884   1.043       .  S
N1882      H1885   1.045       .  S
N1882      H1886   1.040       .  S
C1887      C1888   1.409       .  A
C1887      C1892   1.405       .  A
C1887      H1894   1.081       .  S
C1888      C1889   1.428       .  A
C1889      C1890   1.400       .  A
C1889      N1896   1.440       .  S
C1890      C1891   1.404       .  A
C1890      H1895   1.082       .  S
C1891      C1892   1.416       .  A
C1892      N1893   1.438       .  S
N1893      H1897   1.046       .  S
N1893      H1898   1.046       .  S
N1896      H1899   1.039       .  S
N1896      H1900   1.045       .  S
C1901      C1902   1.407       .  A
C1901      C1906   1.405       .  A
C1901      H1908   1.079       .  S
C1902      C1903   1.426       .  A
C1903      C1904   1.402       .  A
C1903      N1910   1.440       .  S
C1904      C1905   1.408       .  A
C1904      H1909   1.080       .  S
C1905      C1906   1.415       .  A
C1906      N1907   1.433       .  S
N1907      H1911   1.046       .  S
N1907      H1912   1.046       .  S
N1910      H1913   1.041       .  S
N1910      H1914   1.045       .  S
C1915      C1916   1.407       .  A
C1915      C1920   1.402       .  A
C1915      H1922   1.081       .  S
C1916      C1917   1.411       .  A
C1917      C1918   1.402       .  A
C1917      N1924   1.433       .  S
C1918      C1919   1.409       .  A
C1918      H1923   1.082       .  S
C1919      C1920   1.425       .  A
C1920      N1921   1.439       .  S
N1921      H1925   1.045       .  S
N1921      H1926   1.040       .  S
N1924      H1927   1.046       .  S
N1924      H1928   1.045       .  S
C1929      C1930   1.403       .  A
C1929      C1934   1.406       .  A
C1929      H1936   1.083       .  S
C1930      C1931   1.413       .  A
C1930      N2577   1.438   1_545  S
C1931      C1932   1.401       .  A
C1931      N2754   1.438   1_545  S
C1932      C1933   1.402       .  A
C1932      H1937   1.083       .  S
C1933      C1934   1.413       .  A
C1934      N1935   1.437       .  S
N1935      H1939   1.046       .  S
N1935      H1940   1.045       .  S
N1938      C2747   1.438       .  S
N1938      H1941   1.046       .  S
N1938      H1942   1.046       .  S
C1943      C1944   1.402       .  A
C1943      C1948   1.404       .  A
C1943      H1950   1.083       .  S
C1944      C2353   1.413       .  A
C1945      C2352   1.413   1_554  A
C1945      C1946   1.404       .  A
C1945      N1952   1.437       .  S
C1946      C2355   1.401       .  A
C1946      H1951   1.083       .  S
C1947      C2354   1.401       .  A
C1947      C1948   1.410       .  A
C1947      N2554   1.435   1_545  S
C1948      N2765   1.437   1_545  S
N1949      C2764   1.437       .  S
N1949      H1953   1.046       .  S
N1949      H1954   1.046       .  S
N1952      H1955   1.046       .  S
N1952      H1956   1.046       .  S
C1957      C1958   1.408       .  A
C1957      C1962   1.402       .  A
C1957      H1964   1.083       .  S
C1958      C1959   1.416       .  A
C1959      C1960   1.400       .  A
C1959      N1966   1.433       .  S
C1960      C1961   1.405       .  A
C1960      H1965   1.080       .  S
C1961      C1962   1.425       .  A
C1962      N1963   1.435       .  S
N1963      H1967   1.039       .  S
N1963      H1968   1.045       .  S
N1966      H1969   1.045       .  S
N1966      H1970   1.046       .  S
C1971      C1972   1.407       .  A
C1971      C1976   1.404       .  A
C1971      H1978   1.080       .  S
C1972      C1973   1.422       .  A
C1973      C1974   1.400       .  A
C1973      N1980   1.434       .  S
C1974      C1975   1.408       .  A
C1974      H1979   1.083       .  S
C1975      C1976   1.420       .  A
C1976      N1977   1.439       .  S
N1977      H1981   1.046       .  S
N1977      H1982   1.041       .  S
N1980      H1983   1.045       .  S
N1980      H1984   1.040       .  S
C1985      C1986   1.403       .  A
C1985      C1990   1.400       .  A
C1985      H1992   1.084       .  S
C1986      C1987   1.420       .  A
C1987      C1988   1.407       .  A
C1987      N1994   1.438       .  S
C1988      C1989   1.403       .  A
C1988      H1993   1.084       .  S
C1989      C1990   1.414       .  A
N1991      H1995   1.045       .  S
N1991      H1996   1.043       .  S
N1994      H1997   1.042       .  S
N1994      H1998   1.046       .  S
C1999      C2000   1.404       .  A
C1999      C2004   1.407       .  A
C2000      C2409   1.417   1_554  A
C2001      C2408   1.417       .  A
C2001      C2002   1.400       .  A
C2001      N2008   1.439       .  S
C2002      C2411   1.402       .  A
C2002      H2007   1.083       .  S
C2003      C2410   1.402   1_554  A
C2003      C2004   1.410       .  A
C2003      N2192   1.438       .  S
C2004      N2005   1.437       .  S
N2005      H2418   1.046       .  S
N2008      H2419   1.042       .  S
N2008      H2420   1.046       .  S
H2010      N2413   1.046       .  S
H2011      N2416   1.042       .  S
H2012      N2416   1.046       .  S
C2013      C2014   1.405       .  A
C2013      C2018   1.406       .  A
C2013      H2020   1.079       .  S
C2014      C2015   1.426       .  A
C2015      C2016   1.401       .  A
C2015      N2022   1.438       .  S
C2016      C2017   1.406       .  A
C2016      H2021   1.082       .  S
C2017      C2018   1.421       .  A
C2018      N2019   1.439       .  S
N2019      H2024   1.042       .  S
N2022      H2025   1.041       .  S
N2022      H2026   1.045       .  S
C2027      C2028   1.410       .  A
C2027      C2032   1.402       .  A
C2027      H2034   1.081       .  S
C2028      C2029   1.427       .  A
C2029      C2030   1.399       .  A
C2029      N2036   1.440       .  S
C2030      C2031   1.404       .  A
C2030      H2035   1.081       .  S
C2031      C2032   1.412       .  A
C2032      N2033   1.433       .  S
N2033      H2037   1.046       .  S
N2033      H2038   1.046       .  S
N2036      H2039   1.038       .  S
N2036      H2040   1.046       .  S
C2041      C2043   1.538       .  S
C2041      C2045   1.533       .  S
C2041      C2044   1.542       .  S
C2041      C2439   1.530       .  S
C2042      C2046   1.549       .  S
C2042      C2048   1.538       .  S
C2042      C2047   1.545       .  S
C2042      C2425   1.537       .  S
C2043      C2051   1.382       .  A
C2044      C2055   1.380       .  A
C2045      C2059   1.379       .  A
C2046      C2049   1.387       .  A
C2047      C2053   1.381       .  A
C2048      C2056   1.379       .  A
C2049      N2050   1.356       .  A
C2049      H2062   1.082       .  S
N2050      C2266   1.439       .  S
C2051      H2052   1.083       .  S
C2053      H2063   1.082       .  S
N2054      C2055   1.354       .  A
C2055      H2061   1.082       .  S
C2056      H2058   1.082       .  S
N2057      C2059   1.354       .  A
C2059      H2060   1.082       .  S
C2064      C2066   1.535       .  S
C2064      C2068   1.542       .  S
C2064      C2067   1.554       .  S
C2064      C2422   1.538       .  S
C2065      C2069   1.531       .  S
C2065      C2071   1.547       .  S
C2065      C2070   1.544       .  S
C2065      C2436   1.535       .  S
C2066      C2074   1.380       .  A
C2066      C2069   1.383       .  A
C2067      C2078   1.386       .  A
C2067      C2070   1.397       .  A
C2068      C2082   1.384       .  A
C2068      C2071   1.412       .  A
C2069      C2072   1.379       .  A
C2070      C2076   1.380       .  A
C2071      C2079   1.388       .  A
C2072      N2073   1.356       .  A
C2072      H2085   1.082       .  S
N2073      C2074   1.358       .  A
N2073      C2278   1.435       .  S
C2074      H2075   1.082       .  S
C2076      N2077   1.357       .  A
C2076      H2086   1.082       .  S
N2077      C2078   1.359       .  A
C2078      H2084   1.081       .  S
C2079      N2080   1.352       .  A
C2079      H2081   1.082       .  S
N2080      C2082   1.352       .  A
N2080      C2250   1.438       .  S
C2082      H2083   1.083       .  S
C2087      C2089   1.545       .  S
C2087      C2091   1.540       .  S
C2087      C2090   1.543       .  S
C2087      C2366   1.535       .  S
C2088      C2092   1.539       .  S
C2088      C2094   1.533       .  S
C2088      C2093   1.542       .  S
C2088      C2380   1.538       .  S
C2089      C2097   1.388       .  A
C2090      C2101   1.380       .  A
C2091      C2105   1.384       .  A
C2092      C2095   1.384       .  A
C2093      C2099   1.377       .  A
C2094      C2102   1.382       .  A
C2095      H2108   1.082       .  S
N2096      C2097   1.353       .  A
N2096      C2235   1.439       .  S
C2097      H2098   1.082       .  S
C2099      H2109   1.081       .  S
N2100      C2101   1.357       .  A
N2100      C2352   1.437       .  S
C2101      H2107   1.081       .  S
C2102      H2104   1.083       .  S
N2103      C2105   1.352       .  A
N2103      C2263   1.435       .  S
C2105      H2106   1.081       .  S
C2110      C2112   1.541       .  S
C2110      C2114   1.546       .  S
C2110      C2113   1.540       .  S
C2110      C2383   1.536       .  S
C2111      C2115   1.534       .  S
C2111      C2117   1.539       .  S
C2111      C2116   1.546       .  S
C2111      C2369   1.537       .  S
C2112      C2120   1.386       .  A
C2112      C2115   1.397       .  A
C2113      C2124   1.377       .  A
C2113      C2116   1.394       .  A
C2114      C2128   1.390       .  A
C2114      C2117   1.410       .  A
C2115      C2118   1.385       .  A
C2116      C2122   1.379       .  A
C2117      C2125   1.385       .  A
C2118      N2119   1.353       .  A
C2118      H2131   1.083       .  S
N2119      C2120   1.355       .  A
N2119      C2251   1.440       .  S
C2120      H2121   1.082       .  S
C2122      N2123   1.357       .  A
C2122      H2132   1.081       .  S
N2123      C2124   1.356       .  A
N2123      C2341   1.439       .  S
C2124      H2130   1.081       .  S
C2125      N2126   1.350       .  A
C2125      H2127   1.082       .  S
N2126      C2128   1.353       .  A
N2126      C2279   1.439       .  S
C2128      H2129   1.083       .  S
C2133      C2135   1.557       .  S
C2133      C2137   1.546       .  S
C2133      C2136   1.532       .  S
C2133      C2310   1.539       .  S
C2134      C2138   1.545       .  S
C2134      C2140   1.534       .  S
C2134      C2139   1.540       .  S
C2134      C2324   1.531       .  S
C2135      C2143   1.386       .  A
C2136      C2147   1.374       .  A
C2137      C2151   1.381       .  A
C2138      C2141   1.382       .  A
C2139      C2145   1.382       .  A
C2140      C2148   1.378       .  A
C2141      H2154   1.082       .  S
N2142      C2143   1.359   1_554  A
N2142      C3052   1.441       .  S
C2143      H2144   1.080       .  S
C2145      H2155   1.082       .  S
N2146      C2147   1.355   1_554  A
N2146      C3171   1.435       .  S
C2147      H2153   1.083       .  S
C2148      H2150   1.083       .  S
N2149      C2151   1.358   1_554  A
N2149      C2264   1.437       .  S
C2151      H2152   1.079       .  S
C2156      C2158   1.547       .  S
C2156      C2160   1.529       .  S
C2156      C2159   1.537       .  S
C2156      C2327   1.536       .  S
C2157      C2161   1.554       .  S
C2157      C2163   1.548       .  S
C2157      C2162   1.531       .  S
C2157      C2313   1.538       .  S
C2158      C2166   1.382       .  A
C2158      C2161   1.409       .  A
C2159      C2170   1.381       .  A
C2159      C2162   1.388       .  A
C2160      C2174   1.374       .  A
C2160      C2163   1.390       .  A
C2161      C2164   1.383       .  A
C2162      C2168   1.371       .  A
C2163      C2171   1.386       .  A
C2164      N2165   1.355       .  A
C2164      H2177   1.078       .  S
N2165      C2166   1.354       .  A
N2165      C3068   1.437       .  S
C2166      H2167   1.082       .  S
C2168      N2169   1.356       .  A
C2168      H2178   1.082       .  S
N2169      C2170   1.360       .  A
N2169      C3154   1.438       .  S
C2170      H2176   1.081       .  S
C2171      N2172   1.358       .  A
C2171      H2173   1.081       .  S
N2172      C2174   1.355       .  A
N2172      C2280   1.435       .  S
C2174      H2175   1.083       .  S
C2179      C2181   1.545       .  S
C2179      C2183   1.542       .  S
C2179      C2182   1.544       .  S
C2179      C2285   1.538       .  S
C2180      C2184   1.546       .  S
C2180      C2186   1.536       .  S
C2180      C2185   1.541       .  S
C2180      C2296   1.537       .  S
C2181      C2189   1.382       .  A
C2182      C2193   1.379       .  A
C2183      C2197   1.384       .  A
C2184      C2187   1.387       .  A
C2185      C2191   1.380       .  A
C2186      C2194   1.380       .  A
C2187      H2200   1.082       .  S
N2188      C2189   1.352   1_554  A
N2188      C2237   1.438       .  S
C2189      H2190   1.082       .  S
C2191      H2201   1.081       .  S
N2192      C2193   1.355   1_554  A
C2193      H2199   1.082       .  S
C2194      H2196   1.082       .  S
N2195      C2197   1.360       .  A
N2195      C2265   1.440       .  S
C2197      H2198   1.082       .  S
C2202      C2204   1.539       .  S
C2202      C2206   1.537       .  S
C2202      C2205   1.550       .  S
C2202      C2282   1.536       .  S
C2203      C2207   1.537       .  S
C2203      C2209   1.537       .  S
C2203      C2208   1.547       .  S
C2203      C2299   1.534       .  S
C2204      C2212   1.384       .  A
C2204      C2207   1.406       .  A
C2205      C2216   1.385       .  A
C2205      C2208   1.396       .  A
C2206      C2220   1.382       .  A
C2206      C2209   1.394       .  A
C2207      C2210   1.382       .  A
C2208      C2214   1.382       .  A
C2209      C2217   1.383       .  A
C2210      N2211   1.351       .  A
C2210      H2223   1.082       .  S
N2211      C2212   1.351       .  A
N2211      C2277   1.434       .  S
C2212      H2213   1.083       .  S
C2214      N2215   1.357       .  A
C2214      H2224   1.082       .  S
N2215      C2216   1.359       .  A
N2215      C2394   1.442       .  S
C2216      H2222   1.082       .  S
C2217      N2218   1.355       .  A
C2217      H2219   1.083       .  S
N2218      C2220   1.356       .  A
N2218      C2249   1.438       .  S
C2220      H2221   1.082       .  S
O2225     Cu2233   2.020       .  S
O2227     Cu3049   2.018       .  S
O2228     Cu2233   2.007       .  S
O2229     Cu2234   2.006       .  S
O2229      C2238   1.278   1_556  A
O2230     Cu3050   2.014       .  S
O2230      C2237   1.279   1_556  A
O2231      C2236   1.279   1_556  A
O2232     Cu2234   2.016       .  S
O2232      C2235   1.278       .  A
Cu2233     O3043   2.018   1_545  S
Cu2234     O3046   2.014   1_545  S
C2236      N2958   1.441       .  S
O2239     Cu3063   2.020       .  S
O2239      C2249   1.280       .  A
O2240     Cu2247   2.018       .  S
O2241     Cu2247   2.020       .  S
O2241      C2251   1.279       .  A
O2242      C2252   1.279       .  A
O2243      C2252   1.279       .  A
O2244     Cu2248   2.021       .  S
O2244      C2251   1.280       .  A
O2245     Cu2248   2.014       .  S
O2246     Cu3064   2.012       .  S
O2246      C2249   1.278       .  A
Cu2247     O3055   2.020   1_545  S
Cu2247    Cu2248   2.371       .  S
Cu2248     O3062   2.012   1_545  S
C2252      N2981   1.437       .  S
O2253     Cu2261   2.007       .  S
O2254     Cu2261   2.010       .  S
O2255     Cu2261   2.022       .  S
O2256     Cu2261   2.020       .  S
O2257     Cu2262   2.017       .  S
O2257      C2266   1.279       .  A
O2258     Cu2262   2.019       .  S
O2258      C2265   1.279       .  A
O2259     Cu2262   2.017       .  S
O2259      C2264   1.280   1_556  A
O2260     Cu2262   2.016       .  S
O2260      C2263   1.279       .  A
O2267     Cu2275   2.010       .  S
O2267      C2277   1.278       .  A
O2268     Cu2275   2.013       .  S
O2268      C2278   1.279       .  A
O2269     Cu2275   2.013       .  S
O2269      C2279   1.278       .  A
O2270     Cu2275   2.006       .  S
O2270      C2280   1.278       .  A
O2271     Cu2276   2.015       .  S
O2271      C2280   1.279       .  A
O2272     Cu2276   2.019       .  S
O2272      C2279   1.280       .  A
O2273     Cu2276   2.010       .  S
O2273      C2278   1.278       .  A
O2274     Cu2276   2.007       .  S
O2274      C2277   1.278       .  A
Cu2275    Cu2276   2.373       .  S
C2281      C2282   1.405       .  A
C2281      C2286   1.406       .  A
C2281      H2288   1.081       .  S
C2282      C2283   1.425       .  A
C2283      C2284   1.400       .  A
C2283      N2290   1.434       .  S
C2284      C2285   1.406       .  A
C2284      H2289   1.083       .  S
C2285      C2286   1.421       .  A
C2286      N2287   1.437       .  S
N2287      H2291   1.045       .  S
N2287      H2292   1.043       .  S
N2290      H2293   1.045       .  S
N2290      H2294   1.040       .  S
C2295      C2296   1.409       .  A
C2295      C2300   1.405       .  A
C2295      H2302   1.081       .  S
C2296      C2297   1.428       .  A
C2297      C2298   1.400       .  A
C2297      N2304   1.440       .  S
C2298      C2299   1.404       .  A
C2298      H2303   1.082       .  S
C2299      C2300   1.416       .  A
C2300      N2301   1.438       .  S
N2301      H2305   1.046       .  S
N2301      H2306   1.046       .  S
N2304      H2307   1.039       .  S
N2304      H2308   1.045       .  S
C2309      C2310   1.407       .  A
C2309      C2314   1.405       .  A
C2309      H2316   1.079       .  S
C2310      C2311   1.426       .  A
C2311      C2312   1.402       .  A
C2311      N2318   1.440       .  S
C2312      C2313   1.408       .  A
C2312      H2317   1.080       .  S
C2313      C2314   1.415       .  A
C2314      N2315   1.433       .  S
N2315      H2319   1.046       .  S
N2315      H2320   1.046       .  S
N2318      H2321   1.041       .  S
N2318      H2322   1.045       .  S
C2323      C2324   1.407       .  A
C2323      C2328   1.402       .  A
C2323      H2330   1.081       .  S
C2324      C2325   1.411       .  A
C2325      C2326   1.402       .  A
C2325      N2332   1.433       .  S
C2326      C2327   1.409       .  A
C2326      H2331   1.082       .  S
C2327      C2328   1.425       .  A
C2328      N2329   1.439       .  S
N2329      H2333   1.045       .  S
N2329      H2334   1.040       .  S
N2332      H2335   1.046       .  S
N2332      H2336   1.045       .  S
C2337      C2338   1.403       .  A
C2337      C2342   1.406       .  A
C2337      H2344   1.083       .  S
C2338      C2339   1.413       .  A
C2338      N2985   1.438   1_545  S
C2339      C2340   1.401       .  A
C2339      N3162   1.438   1_545  S
C2340      C2341   1.402       .  A
C2340      H2345   1.083       .  S
C2341      C2342   1.413       .  A
C2342      N2343   1.437       .  S
N2343      H2347   1.046       .  S
N2343      H2348   1.045       .  S
N2346      C3155   1.438       .  S
N2346      H2349   1.046       .  S
N2346      H2350   1.046       .  S
C2351      C2352   1.402       .  A
C2351      C2356   1.404       .  A
C2351      H2358   1.083       .  S
C2353      C2354   1.404       .  A
C2353      N2360   1.437       .  S
C2354      H2359   1.083       .  S
C2355      C2356   1.410   1_554  A
C2355      N2962   1.435   1_545  S
C2356      N3173   1.437   1_545  S
N2357      C3172   1.437       .  S
N2357      H2361   1.046       .  S
N2357      H2362   1.046       .  S
N2360      H2363   1.046       .  S
N2360      H2364   1.046       .  S
C2365      C2366   1.408       .  A
C2365      C2370   1.402       .  A
C2365      H2372   1.083       .  S
C2366      C2367   1.416       .  A
C2367      C2368   1.400       .  A
C2367      N2374   1.433       .  S
C2368      C2369   1.405       .  A
C2368      H2373   1.080       .  S
C2369      C2370   1.425       .  A
C2370      N2371   1.435       .  S
N2371      H2375   1.039       .  S
N2371      H2376   1.045       .  S
N2374      H2377   1.045       .  S
N2374      H2378   1.046       .  S
C2379      C2380   1.407       .  A
C2379      C2384   1.404       .  A
C2379      H2386   1.080       .  S
C2380      C2381   1.422       .  A
C2381      C2382   1.400       .  A
C2381      N2388   1.434       .  S
C2382      C2383   1.408       .  A
C2382      H2387   1.083       .  S
C2383      C2384   1.420       .  A
C2384      N2385   1.439       .  S
N2385      H2389   1.046       .  S
N2385      H2390   1.041       .  S
N2388      H2391   1.045       .  S
N2388      H2392   1.040       .  S
C2393      C2394   1.403       .  A
C2393      C2398   1.400       .  A
C2393      H2400   1.084       .  S
C2394      C2395   1.420       .  A
C2395      C2396   1.407       .  A
C2395      N2402   1.438       .  S
C2396      C2397   1.403       .  A
C2396      H2401   1.084       .  S
C2397      C2398   1.414       .  A
N2399      H2403   1.045       .  S
N2399      H2404   1.043       .  S
N2402      H2405   1.042       .  S
N2402      H2406   1.046       .  S
C2407      C2408   1.404       .  A
C2407      C2412   1.407       .  A
C2409      C2410   1.400       .  A
C2409      N2416   1.439       .  S
C2410      H2415   1.083       .  S
C2411      C2412   1.410       .  A
C2412      N2413   1.437       .  S
C2421      C2422   1.405       .  A
C2421      C2426   1.406       .  A
C2421      H2428   1.079       .  S
C2422      C2423   1.426       .  A
C2423      C2424   1.401       .  A
C2423      N2430   1.438       .  S
C2424      C2425   1.406       .  A
C2424      H2429   1.082       .  S
C2425      C2426   1.421       .  A
C2426      N2427   1.439       .  S
N2427      H2432   1.042       .  S
N2430      H2433   1.041       .  S
N2430      H2434   1.045       .  S
C2435      C2436   1.410       .  A
C2435      C2440   1.402       .  A
C2435      H2442   1.081       .  S
C2436      C2437   1.427       .  A
C2437      C2438   1.399       .  A
C2437      N2444   1.440       .  S
C2438      C2439   1.404       .  A
C2438      H2443   1.081       .  S
C2439      C2440   1.412       .  A
C2440      N2441   1.433       .  S
N2441      H2445   1.046       .  S
N2441      H2446   1.046       .  S
N2444      H2447   1.038       .  S
N2444      H2448   1.046       .  S
C2449      C2451   1.538       .  S
C2449      C2453   1.533       .  S
C2449      C2452   1.542       .  S
C2449      C2847   1.530       .  S
C2450      C2454   1.549       .  S
C2450      C2456   1.538       .  S
C2450      C2455   1.545       .  S
C2450      C2833   1.537       .  S
C2451      C2459   1.382       .  A
C2451      C2862   1.407   1_554  A
C2452      C2463   1.380       .  A
C2452      C2863   1.393   1_554  A
C2453      C2467   1.379       .  A
C2453      C2864   1.392   1_554  A
C2454      C2859   1.407       .  A
C2454      C2457   1.387       .  A
C2455      C2860   1.393       .  A
C2455      C2461   1.381       .  A
C2456      C2861   1.392       .  A
C2456      C2464   1.379       .  A
C2457      N2458   1.356       .  A
C2457      H2470   1.082       .  S
N2458      C2867   1.353       .  A
N2458      C2674   1.439       .  S
C2459      N2866   1.353   1_554  A
C2459      H2460   1.083       .  S
C2461      N2870   1.357       .  A
C2461      H2471   1.082       .  S
N2462      C2869   1.357   1_554  A
N2462      C2463   1.354       .  A
C2463      H2469   1.082       .  S
C2464      N2873   1.355       .  A
C2464      H2466   1.082       .  S
N2465      C2872   1.355   1_554  A
N2465      C2467   1.354       .  A
C2467      H2468   1.082       .  S
C2472      C2474   1.535       .  S
C2472      C2476   1.542       .  S
C2472      C2475   1.554       .  S
C2472      C2830   1.538       .  S
C2473      C2477   1.531       .  S
C2473      C2479   1.547       .  S
C2473      C2478   1.544       .  S
C2473      C2844   1.535       .  S
C2474      C2482   1.380       .  A
C2474      C2477   1.383       .  A
C2475      C2486   1.386       .  A
C2475      C2478   1.397       .  A
C2476      C2490   1.384       .  A
C2476      C2479   1.412       .  A
C2477      C2480   1.379       .  A
C2478      C2484   1.380       .  A
C2479      C2487   1.388       .  A
C2480      N2481   1.356       .  A
C2480      H2493   1.082       .  S
N2481      C2482   1.358       .  A
N2481      C2686   1.435       .  S
C2482      H2483   1.082       .  S
C2484      N2485   1.357       .  A
C2484      H2494   1.082       .  S
N2485      C2486   1.359       .  A
C2486      H2492   1.081       .  S
C2487      N2488   1.352       .  A
C2487      H2489   1.082       .  S
N2488      C2490   1.352       .  A
N2488      C2658   1.438       .  S
C2490      H2491   1.083       .  S
C2495      C2497   1.545       .  S
C2495      C2499   1.540       .  S
C2495      C2498   1.543       .  S
C2495      C2774   1.535       .  S
C2496      C2500   1.539       .  S
C2496      C2502   1.533       .  S
C2496      C2501   1.542       .  S
C2496      C2788   1.538       .  S
C2497      C2505   1.388       .  A
C2497      C2908   1.411       .  A
C2498      C2509   1.380       .  A
C2498      C2909   1.392       .  A
C2499      C2513   1.384       .  A
C2499      C2910   1.401       .  A
C2500      C2905   1.411   1_554  A
C2500      C2503   1.384       .  A
C2501      C2906   1.392   1_554  A
C2501      C2507   1.377       .  A
C2502      C2907   1.401   1_554  A
C2502      C2510   1.382       .  A
C2503      N2912   1.351   1_554  A
C2503      H2516   1.082       .  S
N2504      C2911   1.351       .  A
N2504      C2505   1.353       .  A
N2504      C2643   1.439       .  S
C2505      H2506   1.082       .  S
C2507      N2916   1.354   1_554  A
C2507      H2517   1.081       .  S
N2508      C2915   1.354       .  A
N2508      C2509   1.357       .  A
N2508      C2760   1.437       .  S
C2509      H2515   1.081       .  S
C2510      N2919   1.352   1_554  A
C2510      H2512   1.083       .  S
N2511      C2918   1.352       .  A
N2511      C2513   1.352       .  A
N2511      C2671   1.435       .  S
C2513      H2514   1.081       .  S
C2518      C2520   1.541       .  S
C2518      C2522   1.546       .  S
C2518      C2521   1.540       .  S
C2518      C2791   1.536       .  S
C2519      C2523   1.534       .  S
C2519      C2525   1.539       .  S
C2519      C2524   1.546       .  S
C2519      C2777   1.537       .  S
C2520      C2528   1.386       .  A
C2520      C2523   1.397       .  A
C2521      C2532   1.377       .  A
C2521      C2524   1.394       .  A
C2522      C2536   1.390       .  A
C2522      C2525   1.410       .  A
C2523      C2526   1.385       .  A
C2524      C2530   1.379       .  A
C2525      C2533   1.385       .  A
C2526      N2527   1.353       .  A
C2526      H2539   1.083       .  S
N2527      C2528   1.355       .  A
N2527      C2659   1.440       .  S
C2528      H2529   1.082       .  S
C2530      N2531   1.357       .  A
C2530      H2540   1.081       .  S
N2531      C2532   1.356       .  A
N2531      C2749   1.439       .  S
C2532      H2538   1.081       .  S
C2533      N2534   1.350       .  A
C2533      H2535   1.082       .  S
N2534      C2536   1.353       .  A
N2534      C2687   1.439       .  S
C2536      H2537   1.083       .  S
C2541      C2543   1.557       .  S
C2541      C2545   1.546       .  S
C2541      C2544   1.532       .  S
C2541      C2718   1.539       .  S
C2542      C2546   1.545       .  S
C2542      C2548   1.534       .  S
C2542      C2547   1.540       .  S
C2542      C2732   1.531       .  S
C2543      C2551   1.386       .  A
C2543      C2954   1.400       .  A
C2544      C2555   1.374       .  A
C2544      C2955   1.389       .  A
C2545      C2559   1.381       .  A
C2545      C2956   1.394       .  A
C2546      C2951   1.400   1_554  A
C2546      C2549   1.382       .  A
C2547      C2952   1.389   1_554  A
C2547      C2553   1.382       .  A
C2548      C2953   1.394   1_554  A
C2548      C2556   1.378       .  A
C2549      N2958   1.357       .  A
C2549      H2562   1.082       .  S
N2550      C2957   1.357       .  A
N2550      C2551   1.359       .  A
C2551      H2552   1.080       .  S
C2553      N2962   1.357       .  A
C2553      H2563   1.082       .  S
N2554      C2961   1.357       .  A
N2554      C2555   1.355       .  A
C2555      H2561   1.083       .  S
C2556      N2965   1.357       .  A
C2556      H2558   1.083       .  S
N2557      C2964   1.357       .  A
N2557      C2559   1.358       .  A
N2557      C2672   1.437       .  S
C2559      H2560   1.079       .  S
C2564      C2566   1.547       .  S
C2564      C2568   1.529       .  S
C2564      C2567   1.537       .  S
C2564      C2735   1.536       .  S
C2565      C2569   1.554       .  S
C2565      C2571   1.548       .  S
C2565      C2570   1.531       .  S
C2565      C2721   1.538       .  S
C2566      C2574   1.382       .  A
C2566      C2569   1.409       .  A
C2567      C2578   1.381       .  A
C2567      C2570   1.388       .  A
C2568      C2582   1.374       .  A
C2568      C2571   1.390       .  A
C2569      C2572   1.383       .  A
C2570      C2576   1.371       .  A
C2571      C2579   1.386       .  A
C2572      N2573   1.355       .  A
C2572      H2585   1.078       .  S
N2573      C2574   1.354       .  A
C2574      H2575   1.082       .  S
C2576      N2577   1.356       .  A
C2576      H2586   1.082       .  S
N2577      C2578   1.360       .  A
C2578      H2584   1.081       .  S
C2579      N2580   1.358       .  A
C2579      H2581   1.081       .  S
N2580      C2582   1.355       .  A
N2580      C2688   1.435       .  S
C2582      H2583   1.083       .  S
C2587      C2589   1.545       .  S
C2587      C2591   1.542       .  S
C2587      C2590   1.544       .  S
C2587      C2693   1.538       .  S
C2588      C2592   1.546       .  S
C2588      C2594   1.536       .  S
C2588      C2593   1.541       .  S
C2588      C2704   1.537       .  S
C2589      C2597   1.382       .  A
C2589      C3000   1.411       .  A
C2590      C2601   1.379       .  A
C2590      C3001   1.393       .  A
C2591      C2605   1.384       .  A
C2591      C3002   1.388       .  A
C2592      C2997   1.411   1_554  A
C2592      C2595   1.387       .  A
C2593      C2998   1.393   1_554  A
C2593      C2599   1.380       .  A
C2594      C2999   1.388   1_554  A
C2594      C2602   1.380       .  A
C2595      N3004   1.353       .  A
C2595      H2608   1.082       .  S
N2596      C3003   1.353       .  A
N2596      C2597   1.352       .  A
N2596      C2645   1.438       .  S
C2597      H2598   1.082       .  S
C2599      N3008   1.357       .  A
C2599      H2609   1.081       .  S
N2600      C3007   1.357       .  A
N2600      C2601   1.355       .  A
N2600      C3227   1.438       .  S
C2601      H2607   1.082       .  S
C2602      N3011   1.357   1_554  A
C2602      H2604   1.082       .  S
N2603      C3010   1.357       .  A
N2603      C2605   1.360       .  A
N2603      C2673   1.440       .  S
C2605      H2606   1.082       .  S
C2610      C2612   1.539       .  S
C2610      C2614   1.537       .  S
C2610      C2613   1.550       .  S
C2610      C2690   1.536       .  S
C2611      C2615   1.537       .  S
C2611      C2617   1.537       .  S
C2611      C2616   1.547       .  S
C2611      C2707   1.534       .  S
C2612      C2620   1.384       .  A
C2612      C2615   1.406       .  A
C2613      C2624   1.385       .  A
C2613      C2616   1.396       .  A
C2614      C2628   1.382       .  A
C2614      C2617   1.394       .  A
C2615      C2618   1.382       .  A
C2616      C2622   1.382       .  A
C2617      C2625   1.383       .  A
C2618      N2619   1.351       .  A
C2618      H2631   1.082       .  S
N2619      C2620   1.351       .  A
N2619      C2685   1.434       .  S
C2620      H2621   1.083       .  S
C2622      N2623   1.357       .  A
C2622      H2632   1.082       .  S
N2623      C2624   1.359       .  A
N2623      C2802   1.442       .  S
C2624      H2630   1.082       .  S
C2625      N2626   1.355       .  A
C2625      H2627   1.083       .  S
N2626      C2628   1.356       .  A
N2626      C2657   1.438       .  S
C2628      H2629   1.082       .  S
O2633     Cu2641   2.020       .  S
O2633      C3051   1.280   1_554  A
O2634      C3052   1.280   1_455  A
O2635      C3053   1.279       .  A
O2636     Cu2641   2.007       .  S
O2636      C3054   1.278       .  A
O2637     Cu2642   2.006       .  S
O2637      C2646   1.278       .  A
O2638      C2645   1.279       .  A
O2639      C2644   1.279       .  A
O2640     Cu2642   2.016       .  S
O2640      C2643   1.278       .  A
Cu2641    Cu3050   2.371   1_554  S
Cu2642    Cu3049   2.371       .  S
C2643      O3041   1.280       .  A
C2644      O3042   1.280   1_655  A
C2645      O3043   1.279       .  A
C2646      O3044   1.278       .  A
O2647      C2657   1.280       .  A
O2648     Cu2655   2.018       .  S
O2649     Cu2655   2.020       .  S
O2649      C2659   1.279       .  A
O2650      C2660   1.279       .  A
O2651      C2660   1.279       .  A
O2652     Cu2656   2.021       .  S
O2652      C2659   1.280       .  A
O2653     Cu2656   2.014       .  S
O2654      C2657   1.278       .  A
Cu2655    Cu2656   2.371       .  S
O2661     Cu2669   2.007       .  S
O2661      C3079   1.278   1_554  A
O2662     Cu2669   2.010       .  S
O2662      C3080   1.278       .  A
O2663     Cu2669   2.022       .  S
O2663      C3081   1.280   1_554  A
O2664     Cu2669   2.020       .  S
O2664      C3082   1.280   1_554  A
O2665     Cu2670   2.017       .  S
O2665      C2674   1.279       .  A
O2666     Cu2670   2.019       .  S
O2666      C2673   1.279       .  A
O2667     Cu2670   2.017       .  S
O2667      C2672   1.280       .  A
O2668     Cu2670   2.016       .  S
O2668      C2671   1.279       .  A
Cu2669    Cu3078   2.371   1_554  S
Cu2670    Cu3077   2.371       .  S
C2671      O3069   1.278       .  A
C2672      O3070   1.278       .  A
C2673      O3071   1.280       .  A
C2674      O3072   1.280       .  A
O2675     Cu2683   2.010       .  S
O2675      C2685   1.278       .  A
O2676     Cu2683   2.013       .  S
O2676      C2686   1.279       .  A
O2677     Cu2683   2.013       .  S
O2677      C2687   1.278       .  A
O2678     Cu2683   2.006       .  S
O2678      C2688   1.278       .  A
O2679     Cu2684   2.015       .  S
O2679      C2688   1.279       .  A
O2680     Cu2684   2.019       .  S
O2680      C2687   1.280       .  A
O2681     Cu2684   2.010       .  S
O2681      C2686   1.278       .  A
O2682     Cu2684   2.007       .  S
O2682      C2685   1.278       .  A
Cu2683    Cu2684   2.373       .  S
C2689      C2690   1.405       .  A
C2689      C2694   1.406       .  A
C2689      H2696   1.081       .  S
C2690      C2691   1.425       .  A
C2691      C2692   1.400       .  A
C2691      N2698   1.434       .  S
C2692      C2693   1.406       .  A
C2692      H2697   1.083       .  S
C2693      C2694   1.421       .  A
C2694      N2695   1.437       .  S
N2695      H2699   1.045       .  S
N2695      H2700   1.043       .  S
N2698      H2701   1.045       .  S
N2698      H2702   1.040       .  S
C2703      C2704   1.409       .  A
C2703      C2708   1.405       .  A
C2703      H2710   1.081       .  S
C2704      C2705   1.428       .  A
C2705      C2706   1.400       .  A
C2705      N2712   1.440       .  S
C2706      C2707   1.404       .  A
C2706      H2711   1.082       .  S
C2707      C2708   1.416       .  A
C2708      N2709   1.438       .  S
N2709      H2713   1.046       .  S
N2709      H2714   1.046       .  S
N2712      H2715   1.039       .  S
N2712      H2716   1.045       .  S
C2717      C2718   1.407       .  A
C2717      C2722   1.405       .  A
C2717      H2724   1.079       .  S
C2718      C2719   1.426       .  A
C2719      C2720   1.402       .  A
C2719      N2726   1.440       .  S
C2720      C2721   1.408       .  A
C2720      H2725   1.080       .  S
C2721      C2722   1.415       .  A
C2722      N2723   1.433       .  S
N2723      H2727   1.046       .  S
N2723      H2728   1.046   1_565  S
N2726      H2729   1.041       .  S
N2726      H2730   1.045       .  S
C2731      C2732   1.407       .  A
C2731      C2736   1.402       .  A
C2731      H2738   1.081       .  S
C2732      C2733   1.411       .  A
C2733      C2734   1.402       .  A
C2733      N2740   1.433       .  S
C2734      C2735   1.409       .  A
C2734      H2739   1.082       .  S
C2735      C2736   1.425       .  A
C2736      N2737   1.439       .  S
N2737      H2741   1.045       .  S
N2737      H2742   1.040       .  S
N2740      H2743   1.046       .  S
N2740      H2744   1.045       .  S
C2745      C2746   1.403       .  A
C2745      C2750   1.406       .  A
C2745      H2752   1.083       .  S
C2746      C2747   1.413       .  A
C2747      C2748   1.401       .  A
C2748      C2749   1.402       .  A
C2748      H2753   1.083       .  S
C2749      C2750   1.413       .  A
C2750      N2751   1.437       .  S
N2751      H2755   1.046       .  S
N2751      H2756   1.045       .  S
N2754      H2757   1.046       .  S
N2754      H2758   1.046       .  S
C2759      C2760   1.402       .  A
C2759      C2764   1.404       .  A
C2759      H2766   1.083       .  S
C2760      C3169   1.413       .  A
C2761      C3168   1.413   1_554  A
C2761      C2762   1.404       .  A
C2761      N2768   1.437       .  S
C2762      C3171   1.401       .  A
C2762      H2767   1.083       .  S
C2763      C3170   1.401       .  A
C2763      C2764   1.410       .  A
N2765      H2769   1.046       .  S
N2765      H2770   1.046       .  S
N2768      H2771   1.046       .  S
N2768      H2772   1.046       .  S
C2773      C2774   1.408       .  A
C2773      C2778   1.402       .  A
C2773      H2780   1.083       .  S
C2774      C2775   1.416       .  A
C2775      C2776   1.400       .  A
C2775      N2782   1.433       .  S
C2776      C2777   1.405       .  A
C2776      H2781   1.080       .  S
C2777      C2778   1.425       .  A
C2778      N2779   1.435       .  S
N2779      H2783   1.039       .  S
N2779      H2784   1.045       .  S
N2782      H2785   1.045       .  S
N2782      H2786   1.046       .  S
C2787      C2788   1.407       .  A
C2787      C2792   1.404       .  A
C2787      H2794   1.080       .  S
C2788      C2789   1.422       .  A
C2789      C2790   1.400       .  A
C2789      N2796   1.434       .  S
C2790      C2791   1.408       .  A
C2790      H2795   1.083       .  S
C2791      C2792   1.420       .  A
C2792      N2793   1.439       .  S
N2793      H2797   1.046       .  S
N2793      H2798   1.041       .  S
N2796      H2799   1.045       .  S
N2796      H2800   1.040       .  S
C2801      C2802   1.403       .  A
C2801      C2806   1.400       .  A
C2801      H2808   1.084       .  S
C2802      C2803   1.420       .  A
C2803      C2804   1.407       .  A
C2803      N2810   1.438       .  S
C2804      C2805   1.403       .  A
C2804      H2809   1.084       .  S
C2805      C2806   1.414       .  A
N2807      H2811   1.045       .  S
N2807      H2812   1.043       .  S
N2810      H2813   1.042       .  S
N2810      H2814   1.046       .  S
C2815      C2816   1.404       .  A
C2815      C2820   1.407       .  A
C2816      C3225   1.417   1_554  A
C2817      C3224   1.417       .  A
C2817      C2818   1.400       .  A
C2817      N2824   1.439       .  S
C2818      C3227   1.402       .  A
C2818      H2823   1.083       .  S
C2819      C3226   1.402   1_554  A
C2819      C2820   1.410       .  A
C2819      N3008   1.438       .  S
C2820      N2821   1.437       .  S
N2821      H3234   1.046       .  S
N2824      H3235   1.042       .  S
N2824      H3236   1.046       .  S
H2826      N3229   1.046       .  S
H2827      N3232   1.042       .  S
H2828      N3232   1.046       .  S
C2829      C2830   1.405       .  A
C2829      C2834   1.406       .  A
C2829      H2836   1.079       .  S
C2830      C2831   1.426       .  A
C2831      C2832   1.401       .  A
C2831      N2838   1.438       .  S
C2832      C2833   1.406       .  A
C2832      H2837   1.082       .  S
C2833      C2834   1.421       .  A
C2834      N2835   1.439       .  S
N2835      H2840   1.042       .  S
N2838      H2841   1.041       .  S
N2838      H2842   1.045       .  S
C2843      C2844   1.410       .  A
C2843      C2848   1.402       .  A
C2843      H2850   1.081       .  S
C2844      C2845   1.427       .  A
C2845      C2846   1.399       .  A
C2845      N2852   1.440       .  S
C2846      C2847   1.404       .  A
C2846      H2851   1.081       .  S
C2847      C2848   1.412       .  A
C2848      N2849   1.433       .  S
N2849      H2853   1.046       .  S
N2849      H2854   1.046       .  S
N2852      H2855   1.038       .  S
N2852      H2856   1.046       .  S
C2857      C2859   1.538       .  S
C2857      C2861   1.533       .  S
C2857      C2860   1.542       .  S
C2857      C3255   1.530       .  S
C2858      C2862   1.549       .  S
C2858      C2864   1.538       .  S
C2858      C2863   1.545       .  S
C2858      C3241   1.537       .  S
C2859      C2867   1.382       .  A
C2860      C2871   1.380       .  A
C2861      C2875   1.380       .  A
C2862      C2865   1.387       .  A
C2863      C2869   1.381       .  A
C2864      C2872   1.379       .  A
C2865      N2866   1.356       .  A
C2865      H2878   1.082       .  S
N2866      C3082   1.439       .  S
C2867      H2868   1.083       .  S
C2869      H2879   1.082       .  S
N2870      C2871   1.354       .  A
C2871      H2877   1.082       .  S
C2872      H2874   1.082       .  S
N2873      C2875   1.354       .  A
C2875      H2876   1.082       .  S
C2880      C2882   1.535       .  S
C2880      C2884   1.542       .  S
C2880      C2883   1.554       .  S
C2880      C3238   1.538       .  S
C2881      C2885   1.531       .  S
C2881      C2887   1.547       .  S
C2881      C2886   1.544       .  S
C2881      C3252   1.535       .  S
C2882      C2890   1.380       .  A
C2882      C2885   1.383       .  A
C2883      C2894   1.386       .  A
C2883      C2886   1.397       .  A
C2884      C2898   1.384       .  A
C2884      C2887   1.412       .  A
C2885      C2888   1.379       .  A
C2886      C2892   1.380       .  A
C2887      C2895   1.388       .  A
C2888      N2889   1.356       .  A
C2888      H2901   1.082       .  S
N2889      C2890   1.358       .  A
N2889      C3094   1.435       .  S
C2890      H2891   1.082       .  S
C2892      N2893   1.357       .  A
C2892      H2902   1.082       .  S
N2893      C2894   1.359       .  A
C2894      H2900   1.081       .  S
C2895      N2896   1.352       .  A
C2895      H2897   1.082       .  S
N2896      C2898   1.352       .  A
N2896      C3066   1.438       .  S
C2898      H2899   1.083       .  S
C2903      C2905   1.545       .  S
C2903      C2907   1.540       .  S
C2903      C2906   1.543       .  S
C2903      C3182   1.535       .  S
C2904      C2908   1.539       .  S
C2904      C2910   1.533       .  S
C2904      C2909   1.542       .  S
C2904      C3196   1.538       .  S
C2905      C2913   1.388       .  A
C2906      C2917   1.380       .  A
C2907      C2921   1.384       .  A
C2908      C2911   1.384       .  A
C2909      C2915   1.377       .  A
C2910      C2918   1.382       .  A
C2911      H2924   1.082       .  S
N2912      C2913   1.353       .  A
N2912      C3051   1.439       .  S
C2913      H2914   1.082       .  S
C2915      H2925   1.081       .  S
N2916      C2917   1.357       .  A
N2916      C3168   1.437       .  S
C2917      H2923   1.081       .  S
C2918      H2920   1.083       .  S
N2919      C2921   1.352       .  A
N2919      C3079   1.435       .  S
C2921      H2922   1.081       .  S
C2926      C2928   1.541       .  S
C2926      C2930   1.546       .  S
C2926      C2929   1.540       .  S
C2926      C3199   1.536       .  S
C2927      C2931   1.534       .  S
C2927      C2933   1.539       .  S
C2927      C2932   1.546       .  S
C2927      C3185   1.537       .  S
C2928      C2936   1.386       .  A
C2928      C2931   1.397       .  A
C2929      C2940   1.377       .  A
C2929      C2932   1.394       .  A
C2930      C2944   1.390       .  A
C2930      C2933   1.410       .  A
C2931      C2934   1.385       .  A
C2932      C2938   1.379       .  A
C2933      C2941   1.385       .  A
C2934      N2935   1.353       .  A
C2934      H2947   1.083       .  S
N2935      C2936   1.355       .  A
N2935      C3067   1.440       .  S
C2936      H2937   1.082       .  S
C2938      N2939   1.357       .  A
C2938      H2948   1.081       .  S
N2939      C2940   1.356       .  A
N2939      C3157   1.439       .  S
C2940      H2946   1.081       .  S
C2941      N2942   1.350       .  A
C2941      H2943   1.082       .  S
N2942      C2944   1.353       .  A
N2942      C3095   1.439       .  S
C2944      H2945   1.083       .  S
C2949      C2951   1.557       .  S
C2949      C2953   1.546       .  S
C2949      C2952   1.532       .  S
C2949      C3126   1.539       .  S
C2950      C2954   1.545       .  S
C2950      C2956   1.534       .  S
C2950      C2955   1.540       .  S
C2950      C3140   1.531       .  S
C2951      C2959   1.386       .  A
C2952      C2963   1.374       .  A
C2953      C2967   1.381       .  A
C2954      C2957   1.382       .  A
C2955      C2961   1.382       .  A
C2956      C2964   1.378       .  A
C2957      H2970   1.082       .  S
N2958      C2959   1.359   1_554  A
C2959      H2960   1.080       .  S
C2961      H2971   1.082       .  S
N2962      C2963   1.355   1_554  A
C2963      H2969   1.083       .  S
C2964      H2966   1.083       .  S
N2965      C2967   1.358   1_554  A
N2965      C3080   1.437       .  S
C2967      H2968   1.079       .  S
C2972      C2974   1.547       .  S
C2972      C2976   1.529       .  S
C2972      C2975   1.537       .  S
C2972      C3143   1.536       .  S
C2973      C2977   1.554       .  S
C2973      C2979   1.548       .  S
C2973      C2978   1.531       .  S
C2973      C3129   1.538       .  S
C2974      C2982   1.382       .  A
C2974      C2977   1.409       .  A
C2975      C2986   1.381       .  A
C2975      C2978   1.388       .  A
C2976      C2990   1.374       .  A
C2976      C2979   1.390       .  A
C2977      C2980   1.383       .  A
C2978      C2984   1.371       .  A
C2979      C2987   1.386       .  A
C2980      N2981   1.355       .  A
C2980      H2993   1.078       .  S
N2981      C2982   1.354       .  A
C2982      H2983   1.082       .  S
C2984      N2985   1.356       .  A
C2984      H2994   1.082       .  S
N2985      C2986   1.360       .  A
C2986      H2992   1.081       .  S
C2987      N2988   1.358       .  A
C2987      H2989   1.081       .  S
N2988      C2990   1.355       .  A
N2988      C3096   1.435       .  S
C2990      H2991   1.083       .  S
C2995      C2997   1.545       .  S
C2995      C2999   1.542       .  S
C2995      C2998   1.544       .  S
C2995      C3101   1.538       .  S
C2996      C3000   1.546       .  S
C2996      C3002   1.536       .  S
C2996      C3001   1.541       .  S
C2996      C3112   1.537       .  S
C2997      C3005   1.382       .  A
C2998      C3009   1.379       .  A
C2999      C3013   1.384       .  A
C3000      C3003   1.387       .  A
C3001      C3007   1.380       .  A
C3002      C3010   1.380       .  A
C3003      H3016   1.082       .  S
N3004      C3005   1.352   1_554  A
N3004      C3053   1.438       .  S
C3005      H3006   1.082       .  S
C3007      H3017   1.081       .  S
N3008      C3009   1.355   1_554  A
C3009      H3015   1.082       .  S
C3010      H3012   1.082       .  S
N3011      C3013   1.360       .  A
N3011      C3081   1.440       .  S
C3013      H3014   1.082       .  S
C3018      C3020   1.539       .  S
C3018      C3022   1.537       .  S
C3018      C3021   1.550       .  S
C3018      C3098   1.536       .  S
C3019      C3023   1.537       .  S
C3019      C3025   1.537       .  S
C3019      C3024   1.547       .  S
C3019      C3115   1.534       .  S
C3020      C3028   1.384       .  A
C3020      C3023   1.406       .  A
C3021      C3032   1.385       .  A
C3021      C3024   1.396       .  A
C3022      C3036   1.382       .  A
C3022      C3025   1.394       .  A
C3023      C3026   1.382       .  A
C3024      C3030   1.382       .  A
C3025      C3033   1.383       .  A
C3026      N3027   1.351       .  A
C3026      H3039   1.082       .  S
N3027      C3028   1.351       .  A
N3027      C3093   1.434       .  S
C3028      H3029   1.083       .  S
C3030      N3031   1.357       .  A
C3030      H3040   1.082       .  S
N3031      C3032   1.359       .  A
N3031      C3210   1.442       .  S
C3032      H3038   1.082       .  S
C3033      N3034   1.355       .  A
C3033      H3035   1.083       .  S
N3034      C3036   1.356       .  A
N3034      C3065   1.438       .  S
C3036      H3037   1.082       .  S
O3041     Cu3049   2.020       .  S
O3044     Cu3049   2.007       .  S
O3045     Cu3050   2.006       .  S
O3045      C3054   1.278   1_556  A
O3046      C3053   1.279   1_556  A
O3047      C3052   1.279   1_556  A
O3048     Cu3050   2.016       .  S
O3048      C3051   1.278       .  A
O3055      C3065   1.280       .  A
O3056     Cu3063   2.018       .  S
O3057     Cu3063   2.020       .  S
O3057      C3067   1.279       .  A
O3058      C3068   1.279       .  A
O3059      C3068   1.279       .  A
O3060     Cu3064   2.021       .  S
O3060      C3067   1.280       .  A
O3061     Cu3064   2.014       .  S
O3062      C3065   1.278       .  A
Cu3063    Cu3064   2.371       .  S
O3069     Cu3077   2.007       .  S
O3070     Cu3077   2.010       .  S
O3071     Cu3077   2.022       .  S
O3072     Cu3077   2.020       .  S
O3073     Cu3078   2.017       .  S
O3073      C3082   1.279       .  A
O3074     Cu3078   2.019       .  S
O3074      C3081   1.279       .  A
O3075     Cu3078   2.017       .  S
O3075      C3080   1.280   1_556  A
O3076     Cu3078   2.016       .  S
O3076      C3079   1.279       .  A
O3083     Cu3091   2.010       .  S
O3083      C3093   1.278       .  A
O3084     Cu3091   2.013       .  S
O3084      C3094   1.279       .  A
O3085     Cu3091   2.013       .  S
O3085      C3095   1.278       .  A
O3086     Cu3091   2.006       .  S
O3086      C3096   1.278       .  A
O3087     Cu3092   2.015       .  S
O3087      C3096   1.279       .  A
O3088     Cu3092   2.019       .  S
O3088      C3095   1.280       .  A
O3089     Cu3092   2.010       .  S
O3089      C3094   1.278       .  A
O3090     Cu3092   2.007       .  S
O3090      C3093   1.278       .  A
Cu3091    Cu3092   2.373       .  S
C3097      C3098   1.405       .  A
C3097      C3102   1.406       .  A
C3097      H3104   1.081       .  S
C3098      C3099   1.425       .  A
C3099      C3100   1.400       .  A
C3099      N3106   1.434       .  S
C3100      C3101   1.406       .  A
C3100      H3105   1.083       .  S
C3101      C3102   1.421       .  A
C3102      N3103   1.437       .  S
N3103      H3107   1.045       .  S
N3103      H3108   1.043       .  S
N3106      H3109   1.045       .  S
N3106      H3110   1.040       .  S
C3111      C3112   1.409       .  A
C3111      C3116   1.405       .  A
C3111      H3118   1.081       .  S
C3112      C3113   1.428       .  A
C3113      C3114   1.400       .  A
C3113      N3120   1.440       .  S
C3114      C3115   1.404       .  A
C3114      H3119   1.082       .  S
C3115      C3116   1.416       .  A
C3116      N3117   1.438       .  S
N3117      H3121   1.046       .  S
N3117      H3122   1.046       .  S
N3120      H3123   1.039       .  S
N3120      H3124   1.045       .  S
C3125      C3126   1.407       .  A
C3125      C3130   1.405       .  A
C3125      H3132   1.079       .  S
C3126      C3127   1.426       .  A
C3127      C3128   1.402       .  A
C3127      N3134   1.440       .  S
C3128      C3129   1.408       .  A
C3128      H3133   1.080       .  S
C3129      C3130   1.415       .  A
C3130      N3131   1.433       .  S
N3131      H3135   1.046       .  S
N3131      H3136   1.046   1_565  S
N3134      H3137   1.041       .  S
N3134      H3138   1.045       .  S
C3139      C3140   1.407       .  A
C3139      C3144   1.402       .  A
C3139      H3146   1.081       .  S
C3140      C3141   1.411       .  A
C3141      C3142   1.402       .  A
C3141      N3148   1.433       .  S
C3142      C3143   1.409       .  A
C3142      H3147   1.082       .  S
C3143      C3144   1.425       .  A
C3144      N3145   1.439       .  S
N3145      H3149   1.045       .  S
N3145      H3150   1.040       .  S
N3148      H3151   1.046       .  S
N3148      H3152   1.045       .  S
C3153      C3154   1.403       .  A
C3153      C3158   1.406       .  A
C3153      H3160   1.083       .  S
C3154      C3155   1.413       .  A
C3155      C3156   1.401       .  A
C3156      C3157   1.402       .  A
C3156      H3161   1.083       .  S
C3157      C3158   1.413       .  A
C3158      N3159   1.437       .  S
N3159      H3163   1.046       .  S
N3159      H3164   1.045       .  S
N3162      H3165   1.046       .  S
N3162      H3166   1.046       .  S
C3167      C3168   1.402       .  A
C3167      C3172   1.404       .  A
C3167      H3174   1.083       .  S
C3169      C3170   1.404       .  A
C3169      N3176   1.437       .  S
C3170      H3175   1.083       .  S
C3171      C3172   1.410   1_554  A
N3173      H3177   1.046       .  S
N3173      H3178   1.046       .  S
N3176      H3179   1.046       .  S
N3176      H3180   1.046       .  S
C3181      C3182   1.408       .  A
C3181      C3186   1.402       .  A
C3181      H3188   1.083       .  S
C3182      C3183   1.416       .  A
C3183      C3184   1.400       .  A
C3183      N3190   1.433       .  S
C3184      C3185   1.405       .  A
C3184      H3189   1.080       .  S
C3185      C3186   1.425       .  A
C3186      N3187   1.435       .  S
N3187      H3191   1.039       .  S
N3187      H3192   1.045       .  S
N3190      H3193   1.045       .  S
N3190      H3194   1.046       .  S
C3195      C3196   1.407       .  A
C3195      C3200   1.404       .  A
C3195      H3202   1.080       .  S
C3196      C3197   1.422       .  A
C3197      C3198   1.400       .  A
C3197      N3204   1.434       .  S
C3198      C3199   1.408       .  A
C3198      H3203   1.083       .  S
C3199      C3200   1.420       .  A
C3200      N3201   1.439       .  S
N3201      H3205   1.046       .  S
N3201      H3206   1.041       .  S
N3204      H3207   1.045       .  S
N3204      H3208   1.040       .  S
C3209      C3210   1.403       .  A
C3209      C3214   1.400       .  A
C3209      H3216   1.084       .  S
C3210      C3211   1.420       .  A
C3211      C3212   1.407       .  A
C3211      N3218   1.438       .  S
C3212      C3213   1.403       .  A
C3212      H3217   1.084       .  S
C3213      C3214   1.414       .  A
N3215      H3219   1.045       .  S
N3215      H3220   1.043       .  S
N3218      H3221   1.042       .  S
N3218      H3222   1.046       .  S
C3223      C3224   1.404       .  A
C3223      C3228   1.407       .  A
C3225      C3226   1.400       .  A
C3225      N3232   1.439       .  S
C3226      H3231   1.083       .  S
C3227      C3228   1.410       .  A
C3228      N3229   1.437       .  S
C3237      C3238   1.405       .  A
C3237      C3242   1.406       .  A
C3237      H3244   1.079       .  S
C3238      C3239   1.426       .  A
C3239      C3240   1.401       .  A
C3239      N3246   1.438       .  S
C3240      C3241   1.406       .  A
C3240      H3245   1.082       .  S
C3241      C3242   1.421       .  A
C3242      N3243   1.439       .  S
N3243      H3248   1.042       .  S
N3246      H3249   1.041       .  S
N3246      H3250   1.045       .  S
C3251      C3252   1.410       .  A
C3251      C3256   1.402       .  A
C3251      H3258   1.081       .  S
C3252      C3253   1.427       .  A
C3253      C3254   1.399       .  A
C3253      N3260   1.440       .  S
C3254      C3255   1.404       .  A
C3254      H3259   1.081       .  S
C3255      C3256   1.412       .  A
C3256      N3257   1.433       .  S
N3257      H3261   1.046       .  S
N3257      H3262   1.046       .  S
N3260      H3263   1.038       .  S
N3260      H3264   1.046       .  S
