geometry optimzed in LAMMPS
_audit_creation_date              2020-11-30 
_audit_creation_method            'lammps2cif' 
_symmetry_space_group_name_H-M    'P1' 
_symmetry_Int_Tables_number       1 
_symmetry_cell_setting            triclinic 
loop_ 
_symmetry_equiv_pos_as_xyz 
  x,y,z 
_cell_length_a                    28.11809014 
_cell_length_b                    29.704339764765376 
_cell_length_c                    43.98401868517438 
_cell_angle_alpha                 105.17172935798763 
_cell_angle_beta                  84.59591663425776 
_cell_angle_gamma                 90.32640622792853 
loop_ 
_atom_site_label 
_atom_site_type_symbol 
_atom_site_fract_x 
_atom_site_fract_y 
_atom_site_fract_z 
_atom_site_charge 
N1          N  0.83313705  0.22749109  0.52146867    -0.03600
C2          C  0.80177559  0.26363524  0.53461440    -0.01000
C3          C  0.78292938  0.26642381  0.06276267    -0.23900
C4          C  0.80508229  0.23057688  0.07032675    -0.24100
C5          C  0.83428707  0.20761288  0.04376767    -0.01100
H6          H  0.75752169  0.29146474  0.07811282     0.12700
H7          H  0.80148584  0.22289112  0.09316377     0.12700
N8          N  0.25848366  0.93766442  0.46207377    -0.03600
C9          C  0.29990376  0.91240034  0.45453873    -0.01000
C10         C  0.32384064  0.91983137  0.42743467    -0.23900
C11         C  0.29638396  0.95094620  0.41809694    -0.24100
C12         C  0.25620813  0.96102931  0.43955199    -0.01100
H13         H  0.35638606  0.90243629  0.41483804     0.12700
H14         H  0.30280688  0.96155094  0.39634639     0.12700
Zr15       Zr  0.56118620  0.55051104  0.04150847     2.17500
O16         O  0.63971139  0.55367797  0.06128137    -0.51400
O17         O  0.51917914  0.51446814  0.08035557    -0.74600
O18         O  0.56761460  0.61595236  0.08812445    -0.81400
O19         O  0.59408666  0.43035072  0.47627792    -0.83200
O20         O  0.52273781  0.67643880  0.08294160    -0.78800
O21         O  0.61187612  0.47914951  0.02652013    -0.90400
O22         O  0.44165145  0.50382425  0.07005390    -0.76400
O23         O  0.48301678  0.58561770  0.05215060    -0.85900
O24         O  0.50854207  0.49480989  0.01390049    -0.85600
O25         O  0.56659737  0.62001272  0.02265915    -0.72300
O26         O  0.59184457  0.53105577  0.48404783    -0.84500
Zr27       Zr  0.46435185  0.57527218  0.44974868     2.26400
Zr28       Zr  0.48725071  0.65360018  0.03271109     2.06300
Zr29       Zr  0.53835761  0.47474818  0.45711145     2.10000
Zr30       Zr  0.43089114  0.53019429  0.02376452     1.78800
O31         O  0.60055943  0.43230050  0.41788998    -0.93300
O32         O  0.37116629  0.56916506  0.06621345    -0.41100
O33         O  0.45858126  0.50550722  0.46742874    -0.77700
O34         O  0.43407131  0.59834825  0.00453710    -0.96400
O35         O  0.51498020  0.63319261  0.47755973    -0.89700
O36         O  0.54324260  0.54304568  0.43832803    -0.92500
C37         C  0.47646373  0.50086822  0.08626035     1.01200
C38         C  0.61364478  0.44111501  0.00399341     1.14100
C39         C  0.55101540  0.65809257  0.09796856     1.04900
O40         O  0.41622739  0.67750029  0.06956363    -0.94700
O41         O  0.44060270  0.70120649  0.00775712    -0.90400
O42         O  0.42178860  0.64872690  0.46206534    -0.83600
C43         C  0.41735734  0.68703378  0.48394479     1.11600
O44         O  0.67412693  0.60516559  0.48181328    -0.96700
Zr45       Zr  0.59330369  0.60059410  0.46580451     1.88900
O46         O  0.49727030  0.61551571  0.41204756    -0.73300
O47         O  0.51938456  0.73187048  0.04536218    -0.52600
O48         O  0.61297512  0.68279787  0.48199872    -0.97300
O49         O  0.65838567  0.56737466  0.42556046    -0.54500
O50         O  0.57573820  0.62691048  0.41941535    -0.73800
C51         C  0.53867203  0.62999050  0.40486659     0.98500
O52         O  0.38423895  0.56521675  0.43238061    -0.62700
O53         O  0.49128555  0.40489400  0.45435457    -0.57500
O54         O  0.46738460  0.51679105  0.39871295    -0.94100
O55         O  0.51428099  0.45799019  0.40417476    -0.92600
O56         O  0.40470213  0.44967640  0.01036102    -0.92900
O57         O  0.35105818  0.53005814  0.00643932    -0.91700
C58         C  0.48943422  0.47716082  0.38782099     1.17300
H59         H  0.50867348  0.46612654  0.02050747     0.33300
H60         H  0.40214174  0.61220636  0.00723822     0.44100
H61         H  0.55411804  0.53595527  0.41598845     0.37700
H62         H  0.58857839  0.64153661  0.03438594     0.34200
H63         H  0.38917621  0.58131657  0.08485259     0.25900
H64         H  0.52483874  0.73978451  0.02484408     0.31900
H65         H  0.58836598  0.69891672  0.47377850     0.37800
H66         H  0.38362939  0.44694910  0.02911299     0.32200
H67         H  0.50516488  0.38196618  0.43497706     0.31100
H68         H  0.58997556  0.39954177  0.41221119     0.32800
H69         H  0.65337224  0.57917596  0.40701175     0.31800
H70         H  0.35303379  0.50700962  0.98551687     0.35800
H71         H  0.37856983  0.53134032  0.42818399     0.28500
H72         H  0.63378162  0.55392606  0.08386004     0.32700
H73         H  0.67054244  0.60040588  0.50337027     0.35600
H74         H  0.50047862  0.39269914  0.47192873     0.28200
H75         H  0.36246162  0.57928579  0.45154995     0.41100
H76         H  0.42181989  0.66547774  0.08792828     0.31100
H77         H  0.36124992  0.59741935  0.06030510     0.38700
H78         H  0.65157151  0.53369745  0.41876705     0.30600
H79         H  0.49213351  0.75223585  0.05690966     0.30700
H80         H  0.65183140  0.58509935  0.06134618     0.30900
N81         N  0.39774774  0.33719602  0.19681512    -0.03600
C82         C  0.38425858  0.29347406  0.18224905    -0.01000
C83         C  0.41113970  0.26115540  0.19133505    -0.23900
C84         C  0.43870026  0.28553259  0.21398876    -0.24100
C85         C  0.42872446  0.33222446  0.21759323    -0.01100
H86         H  0.40483664  0.22406976  0.18655227     0.12700
H87         H  0.45908403  0.27044982  0.22866356     0.12700
N88         N  0.64422370  0.78610713  0.26360025    -0.03600
C89         C  0.65733948  0.83155030  0.27114026    -0.01000
C90         C  0.63147507  0.85628369  0.29869689    -0.23900
C91         C  0.60239064  0.82520519  0.30900950    -0.24100
C92         C  0.61154331  0.78234748  0.28757177    -0.01100
H93         H  0.63731523  0.89180854  0.31186041     0.12700
H94         H  0.58156950  0.83192188  0.33177920     0.12700
Zr95       Zr  0.05222814  0.10759295  0.19291400     2.17500
O96         O  0.03939005  0.17835323  0.17628629    -0.51400
O97         O  0.10533328  0.06949886  0.14714108    -0.74600
O98         O  0.12174413  0.15716479  0.19881487    -0.81400
O99         O  0.93825369  0.05393664  0.16156679    -0.83200
O100        O  0.14943338  0.15823446  0.24595792    -0.78800
O101        O  0.99843809  0.10098006  0.15167868    -0.90400
O102        O  0.12242548  0.99608723  0.14963866    -0.76400
O103        O  0.11013634  0.06884601  0.21368637    -0.85900
O104        O  0.03118554  0.02757786  0.18061836    -0.85600
O105        O  0.04606099  0.14547026  0.24864253    -0.72300
O106        O  0.97306854  0.10633484  0.21835795    -0.84500
Zr107      Zr  0.00397978  0.02243963  0.28366552     2.26400
Zr108      Zr  0.10288439  0.10452700  0.26934247     2.06300
Zr109      Zr  0.95341104  0.02566733  0.20678447     2.10000
Zr110      Zr  0.08875036  0.98905046  0.20152005     1.78800
O111        O  0.86894092  0.04395074  0.20744900    -0.93300
O112        O  0.17504048  0.97884290  0.19961847    -0.41100
O113        O  0.01024897  0.98511029  0.22763653    -0.77700
O114        O  0.08338649  0.02363605  0.25771817    -0.96400
O115        O  0.02500264  0.10250877  0.29538752    -0.89700
O116        O  0.94649460  0.06139384  0.26251752    -0.92500
C117        C  0.12497868  0.02905581  0.13558883     1.01200
C118        C  0.95899285  0.08000073  0.14541110     1.14100
C119        C  0.15045690  0.17119622  0.22022918     1.04900
O120        O  0.18552865  0.07893624  0.26688598    -0.94700
O121        O  0.11298434  0.08186530  0.31761913    -0.90400
O122        O  0.05794748  0.02833753  0.32487624    -0.83600
C123        C  0.09458329  0.05332601  0.33272878     1.11600
O124        O  0.93860853  0.20616430  0.25670084    -0.96700
Zr125      Zr  0.96775188  0.14109370  0.27430657     1.88900
O126        O  0.95668489  0.06465513  0.33245861    -0.73300
O127        O  0.11352271  0.17696611  0.30951336    -0.52600
O128        O  0.99259802  0.21605300  0.30612173    -0.97300
O129        O  0.88088043  0.14789235  0.27780163    -0.54500
O130        O  0.94315611  0.13806211  0.32834465    -0.73800
C131        C  0.94100928  0.10697115  0.34396924     0.98500
O132        O  0.01709999  0.94790259  0.29554401    -0.62700
O133        O  0.95063340  0.95447212  0.16416913    -0.57500
O134        O  0.93287626  0.97424330  0.27760844    -0.94100
O135        O  0.90559467  0.97342823  0.23039806    -0.92600
O136        O  0.06583026  0.91707360  0.16522217    -0.92900
O137        O  0.11031561  0.91884861  0.21629357    -0.91700
C138        C  0.90345504  0.96110944  0.25635696     1.17300
H139        H  0.03077127  0.01452538  0.15795917     0.33300
H140        H  0.10545792  0.00720578  0.26668801     0.44100
H141        H  0.91497153  0.05843853  0.27190515     0.37700
H142        H  0.05457204  0.17803278  0.25200916     0.34200
H143        H  0.18313829  0.95164331  0.18129232     0.25900
H144        H  0.09448881  0.17352797  0.32886400     0.31900
H145        H  0.00054122  0.21001938  0.32617476     0.37800
H146        H  0.05257569  0.92700677  0.14789749     0.32200
H147        H  0.91623102  0.95001108  0.16144509     0.31100
H148        H  0.85792793  0.02028294  0.18924401     0.32800
H149        H  0.86872838  0.13093477  0.29345299     0.31800
H150        H  0.09225465  0.92161734  0.23714804     0.35800
H151        H  0.00667327  0.92395495  0.27727236     0.28500
H152        H  0.06719346  0.17995008  0.16099802     0.32700
H153        H  0.96590472  0.21386024  0.24312802     0.35600
H154        H  0.96404489  0.96283142  0.14477185     0.28200
H155        H  0.05224464  0.94339636  0.29340642     0.41100
H156        H  0.19349927  0.06123092  0.24457713     0.31100
H157        H  0.18866396  0.00569038  0.19260785     0.38700
H158        H  0.87212385  0.12829148  0.25726304     0.30600
H159        H  0.14718602  0.17558351  0.31416942     0.30700
H160        H  0.04347639  0.20440574  0.19510713     0.30900
C161        C  0.70456344  0.84787069  0.26107220    -0.05300
C162        C  0.71647206  0.85132927  0.23012806    -0.05300
C163        C  0.75944614  0.87184154  0.22244559    -0.23400
C164        C  0.79093339  0.88913236  0.24565737     0.18800
C165        C  0.77966527  0.88445814  0.27661568     0.16000
C166        C  0.73681944  0.86372152  0.28401896    -0.18500
C167        C  0.81069425  0.90182828  0.29994735    -0.20300
C168        C  0.85192434  0.92508971  0.29299491    -0.12900
C169        C  0.86293924  0.93144342  0.26257288     0.03800
C170        C  0.83265245  0.91231117  0.23877303    -0.25000
H171        H  0.69193003  0.83968817  0.21224701     0.08900
H172        H  0.76751223  0.87521082  0.19857464     0.12500
H173        H  0.72786337  0.86092214  0.30798030     0.12400
H174        H  0.80246337  0.89844965  0.32381060     0.12200
H175        H  0.87435411  0.93942983  0.31178227     0.12700
H176        H  0.84070171  0.91661255  0.21511845     0.14700
C177        C  0.18692396  0.20513770  0.21529211    -0.05300
C178        C  0.19853207  0.24096410  0.24119236    -0.05300
C179        C  0.23435358  0.27224952  0.23747246    -0.23400
C180        C  0.26080076  0.26685825  0.20808202     0.18800
C181        C  0.24938520  0.23109367  0.18168208     0.16000
C182        C  0.21134246  0.20129864  0.18523546    -0.18500
C183        C  0.27866623  0.22352169  0.15301942    -0.20300
C184        C  0.32138368  0.24781370  0.15164233    -0.12900
C185        C  0.33372280  0.28187690  0.17828456     0.03800
C186        C  0.30145720  0.29357622  0.20562348    -0.25000
H187        H  0.17990924  0.24462296  0.26444827     0.08900
H188        H  0.24302764  0.29916919  0.25798447     0.12500
H189        H  0.20286130  0.17332814  0.16523179     0.12400
H190        H  0.27070371  0.19614409  0.13256255     0.12200
H191        H  0.34637494  0.23772622  0.13062918     0.12700
H192        H  0.31150817  0.31904104  0.22649260     0.14700
C193        C  0.40064655  0.37455936  0.18123788    -0.05300
C194        C  0.36221144  0.38514819  0.16593625    -0.05300
C195        C  0.36823541  0.41512376  0.14607955    -0.23400
C196        C  0.41287652  0.43492442  0.14116668     0.18800
C197        C  0.45081813  0.42689572  0.15800147     0.16000
C198        C  0.44447869  0.39698717  0.17785431    -0.18500
C199        C  0.49529603  0.44703106  0.15353037    -0.20300
C200        C  0.50306706  0.47272212  0.13114501    -0.12900
C201        C  0.46652536  0.47873675  0.11278699     0.03800
C202        C  0.42088488  0.46087890  0.11873690    -0.25000
H203        H  0.32798262  0.36907872  0.16851730     0.08900
H204        H  0.33846523  0.42150363  0.13371585     0.12500
H205        H  0.47481303  0.38893526  0.18909122     0.12400
H206        H  0.52456801  0.44168167  0.16664498     0.12200
H207        H  0.53821754  0.48661816  0.12753529     0.12700
H208        H  0.39200976  0.46550586  0.10508725     0.14700
C209        C  0.48773764  0.45120444  0.35424551    -0.05300
C210        C  0.52070398  0.41416127  0.34093082    -0.05300
C211        C  0.51816694  0.38627881  0.31039926    -0.23400
C212        C  0.48258401  0.39469275  0.29238672     0.18800
C213        C  0.45038846  0.43294755  0.30472502     0.16000
C214        C  0.45339598  0.46139019  0.33558447    -0.18500
C215        C  0.41468386  0.44075520  0.28639109    -0.19900
C216        C  0.40920868  0.40934751  0.25712380    -0.12900
C217        C  0.43983783  0.37002841  0.24544336     0.03800
C218        C  0.47760813  0.36410535  0.26276112    -0.25000
H219        H  0.54830784  0.40600798  0.35435211     0.08900
H220        H  0.54330248  0.35730071  0.30120985     0.12500
H221        H  0.42802788  0.49001400  0.34540793     0.12400
H222        H  0.38977184  0.46996834  0.29524261     0.12200
H223        H  0.37944740  0.41468709  0.24446941     0.12700
H224        H  0.50200662  0.33448268  0.25386919     0.14700
C225        C  0.56640967  0.68822671  0.12819176    -0.05300
C226        C  0.54999792  0.73491042  0.13926786    -0.05300
C227        C  0.56542444  0.76426127  0.16676358    -0.23400
C228        C  0.59718762  0.74759633  0.18419133     0.18800
C229        C  0.61396484  0.70084922  0.17368273     0.16000
C230        C  0.59873184  0.67152064  0.14566170    -0.18500
C231        C  0.64478452  0.68411615  0.19185002    -0.20300
C232        C  0.65707470  0.71281579  0.22074776    -0.12900
C233        C  0.63978253  0.75904503  0.23157115     0.03800
C234        C  0.61082606  0.77645155  0.21265984    -0.25000
H235        H  0.52524532  0.74905893  0.12656686     0.08900
H236        H  0.55200069  0.79995800  0.17461373     0.12500
H237        H  0.61183859  0.63572743  0.13762620     0.12400
H238        H  0.65809299  0.64838389  0.18423561     0.12200
H239        H  0.67903751  0.69858346  0.23502363     0.12700
H240        H  0.59663569  0.81183934  0.22120398     0.14700
C241        C  0.60276348  0.73920684  0.29776797    -0.05300
C242        C  0.64204591  0.71340621  0.30216113    -0.05300
C243        C  0.63669539  0.68349894  0.32201758    -0.23400
C244        C  0.59200763  0.67924818  0.33796112     0.18800
C245        C  0.55158008  0.70217980  0.33163935     0.16000
C246        C  0.55720205  0.73184245  0.31144689    -0.18500
C247        C  0.50681969  0.69764785  0.34733338    -0.20300
C248        C  0.50260383  0.67286925  0.37038402    -0.12900
C249        C  0.54313129  0.65244091  0.37836833     0.03800
C250        C  0.58757331  0.65467652  0.36136566    -0.25000
H251        H  0.67767006  0.71963477  0.29263363     0.08900
H252        H  0.66802348  0.66599298  0.32642392     0.12500
H253        H  0.52694415  0.75227469  0.30851667     0.12400
H254        H  0.47535974  0.71458057  0.34257141     0.12200
H255        H  0.46777993  0.67125473  0.38284669     0.12700
H256        H  0.61885707  0.63832346  0.36688224     0.14700
C257        C  0.23286792  0.95433766  0.99277318    -0.05300
C258        C  0.21797479  0.91580954  0.00388840    -0.05300
C259        C  0.19346525  0.92235612  0.03403058    -0.23400
C260        C  0.18372080  0.96758804  0.05356290     0.18800
C261        C  0.19742197  0.00640208  0.04203148     0.16000
C262        C  0.22141673  0.99949611  0.01173057    -0.18500
C263        C  0.18800737  0.05162349  0.06125265    -0.20300
C264        C  0.16518937  0.05855068  0.09168903    -0.12900
C265        C  0.15131176  0.02042236  0.10367803     0.03800
C266        C  0.16090282  0.97481620  0.08442150    -0.25000
H267        H  0.21196787  0.87424460  0.48756884     0.08900
H268        H  0.18297296  0.89210759  0.04228378     0.12500
H269        H  0.23331546  0.02931018  0.00337395     0.12400
H270        H  0.19842516  0.08171657  0.05277937     0.12200
H271        H  0.15845550  0.09403880  0.10591716     0.12700
H272        H  0.15010629  0.94510235  0.09322659     0.14700
C273        C  0.11915462  0.04822511  0.36016870    -0.05300
C274        C  0.15236908  0.08182894  0.37301626    -0.05300
C275        C  0.18214507  0.07427109  0.39488964    -0.23400
C276        C  0.17916184  0.03306417  0.40463971     0.18800
C277        C  0.14336936  0.00061621  0.39401668     0.16000
C278        C  0.11353790  0.00832480  0.37175680    -0.18500
C279        C  0.13997524  0.95986481  0.40453593    -0.20300
C280        C  0.17397146  0.94973874  0.42324387    -0.12900
C281        C  0.21214017  0.97981672  0.43128647     0.03800
C282        C  0.21341084  0.02236964  0.42307468    -0.25000
H283        H  0.15675238  0.11340201  0.36518735     0.08900
H284        H  0.20877973  0.09989956  0.40324066     0.12500
H285        H  0.08800935  0.98215138  0.36222890     0.12400
H286        H  0.11261090  0.93469333  0.39694300     0.12200
H287        H  0.17290147  0.91643280  0.42901403     0.12700
H288        H  0.24316105  0.04539786  0.42896906     0.14700
C289        C  0.31415281  0.87515084  0.46856900    -0.05300
C290        C  0.32885735  0.88486800  0.49918799    -0.05300
C291        C  0.35022411  0.84958757  0.50953439    -0.23400
C292        C  0.35670663  0.80423483  0.48938916     0.18800
C293        C  0.33917258  0.79419524  0.45927807     0.16000
C294        C  0.31831516  0.82957321  0.44911758    -0.18500
C295        C  0.34405355  0.74923987  0.43919209    -0.20300
C296        C  0.36781612  0.71465696  0.44813279    -0.12900
C297        C  0.38796581  0.72415962  0.47727668     0.03800
C298        C  0.38138737  0.76908385  0.49822326    -0.25000
H299        H  0.32574350  0.92003530  0.51445854     0.08900
H300        H  0.36281032  0.85803950  0.53285929     0.12500
H301        H  0.30671828  0.82207692  0.42549054     0.12400
H302        H  0.33026647  0.74096539  0.41621109     0.12200
H303        H  0.37140298  0.68050100  0.43152061     0.12700
H304        H  0.39628711  0.77696583  0.52082830     0.14700
C305        C  0.86839673  0.17083384  0.04526112    -0.05300
C306        C  0.91759956  0.17924867  0.04347127    -0.05300
C307        C  0.94781806  0.15708089  0.05893841    -0.23400
C308        C  0.92875231  0.12715134  0.07681762     0.18800
C309        C  0.88030399  0.11460046  0.07541931     0.16000
C310        C  0.85082505  0.13561168  0.05893382    -0.18500
C311        C  0.86072620  0.08518445  0.09329423    -0.20300
C312        C  0.88743995  0.07191345  0.11475042    -0.12900
C313        C  0.93444378  0.08746997  0.11858295     0.03800
C314        C  0.95577880  0.11306191  0.09821314    -0.25000
H315        H  0.93171497  0.20646747  0.03312641     0.08900
H316        H  0.98508087  0.16651171  0.05924181     0.12500
H317        H  0.81276124  0.12916838  0.06034096     0.12400
H318        H  0.82377715  0.07482159  0.09215866     0.12200
H319        H  0.87020504  0.05143527  0.12954610     0.12700
H320        H  0.99223417  0.12459122  0.10041991     0.14700
C321        C  0.91966120  0.12156203  0.37759141    -0.05300
C322        C  0.90593303  0.08838430  0.39430715    -0.05300
C323        C  0.88594308  0.10246539  0.42586992    -0.23400
C324        C  0.87989443  0.15005900  0.44158339     0.18800
C325        C  0.89415081  0.18369755  0.42524463     0.16000
C326        C  0.91345876  0.16932926  0.39344405    -0.18500
C327        C  0.88920834  0.23126334  0.44104530    -0.20300
C328        C  0.87014133  0.24547804  0.47267692    -0.12900
C329        C  0.85469008  0.21256602  0.48910437     0.03800
C330        C  0.85987699  0.16467138  0.47328213    -0.25000
H331        H  0.91027570  0.05144451  0.38289476     0.08900
H332        H  0.87541004  0.07609863  0.43803141     0.12500
H333        H  0.92425784  0.19552741  0.38118051     0.12400
H334        H  0.90043160  0.25756280  0.42898377     0.12200
H335        H  0.86796031  0.28235643  0.48437647     0.12700
H336        H  0.84767561  0.13880757  0.48546085     0.14700
C337        C  0.64601142  0.40237421  0.00451500    -0.05300
C338        C  0.64284916  0.35401839  0.48514446    -0.05300
C339        C  0.67327130  0.31732145  0.48555761    -0.23400
C340        C  0.71556975  0.32637928  0.50026514     0.18800
C341        C  0.72398986  0.37249324  0.01093944     0.16000
C342        C  0.69323769  0.41033344  0.01220046    -0.18500
C343        C  0.77067751  0.38000784  0.01963624    -0.20300
C344        C  0.79853541  0.34274947  0.02250203    -0.12900
C345        C  0.78446296  0.29882741  0.52008727     0.03800
C346        C  0.74424833  0.28945392  0.50314223    -0.25000
H347        H  0.61002769  0.34584962  0.47395108     0.08900
H348        H  0.66324451  0.28181764  0.47488880     0.12500
H349        H  0.70594090  0.44575444  0.01904345     0.12400
H350        H  0.78444456  0.41501147  0.02624682     0.12200
H351        H  0.83247492  0.34991301  0.03241593     0.12700
H352        H  0.73297377  0.25370899  0.49481877     0.14700
N353        N  0.83101576  0.22820995  0.01979087    -0.03600
C354        C  0.79931267  0.26440300  0.03189169    -0.01000
C355        C  0.78661037  0.26479911  0.56556170    -0.23900
C356        C  0.80942115  0.22858723  0.57218977    -0.24100
C357        C  0.83770333  0.20643273  0.54500388    -0.01100
H358        H  0.76213428  0.28993486  0.58171380     0.12700
H359        H  0.80739314  0.22049631  0.59488514     0.12700
N360        N  0.26412592  0.94861239  0.96406545    -0.03600
C361        C  0.30768280  0.92681536  0.95778792    -0.01000
C362        C  0.33294063  0.93812743  0.93240297    -0.23900
C363        C  0.30427475  0.96796249  0.92277848    -0.24100
C364        C  0.26202979  0.97361538  0.94233714    -0.01100
H365        H  0.36741333  0.92398899  0.92095648     0.12700
H366        H  0.31193130  0.98103562  0.90209873     0.12700
Zr367      Zr  0.56448646  0.54521776  0.53931685     2.17500
O368        O  0.63960018  0.53986239  0.56187162    -0.51400
O369        O  0.52486609  0.50987821  0.57902412    -0.74600
O370        O  0.57528208  0.61225187  0.58448819    -0.81400
O371        O  0.58872877  0.43364950  0.98037310    -0.83200
O372        O  0.52423684  0.67014592  0.58245999    -0.78800
O373        O  0.61811418  0.47639101  0.52189417    -0.90400
O374        O  0.44690877  0.49920872  0.57026570    -0.76400
O375        O  0.48570849  0.57868012  0.55145301    -0.85900
O376        O  0.51224700  0.48852893  0.51199175    -0.85600
O377        O  0.56819606  0.61526764  0.52118965    -0.72300
O378        O  0.59092663  0.53619146  0.98667582    -0.84500
Zr379      Zr  0.46481747  0.58054633  0.94967534     2.26400
Zr380      Zr  0.48822819  0.64739857  0.53252509     2.06300
Zr381      Zr  0.53750383  0.48019284  0.95959268     2.10000
Zr382      Zr  0.43406763  0.52245048  0.52312286     1.78800
O383        O  0.60367390  0.44509613  0.92096513    -0.93300
O384        O  0.37151406  0.56428003  0.56216706    -0.41100
O385        O  0.45821700  0.51195251  0.96855286    -0.77700
O386        O  0.43533116  0.59126201  0.50470366    -0.96400
O387        O  0.51528175  0.63811275  0.97793759    -0.89700
O388        O  0.54326204  0.54763098  0.93994299    -0.92500
C389        C  0.48256058  0.49637752  0.58578720     1.01200
C390        C  0.62009434  0.43843539  0.49937965     1.14100
C391        C  0.55609846  0.65322621  0.59577259     1.04900
O392        O  0.41908982  0.67175586  0.57105043    -0.94700
O393        O  0.43731078  0.69477032  0.50999103    -0.90400
O394        O  0.42484764  0.65566405  0.95962028    -0.83600
C395        C  0.42179654  0.69438927  0.98133841     1.11600
O396        O  0.67322338  0.61826678  0.98471148    -0.96700
Zr397      Zr  0.59331342  0.60519703  0.96749728     1.88900
O398        O  0.50138255  0.61871893  0.91152446    -0.73300
O399        O  0.52304880  0.72455785  0.54274738    -0.52600
O400        O  0.60666297  0.68891544  0.98180307    -0.97300
O401        O  0.65748243  0.56937516  0.92727960    -0.54500
O402        O  0.57950537  0.63001913  0.92013595    -0.73800
C403        C  0.54319037  0.63313953  0.90500434     0.98500
O404        O  0.38536186  0.56596758  0.93184989    -0.62700
O405        O  0.49406417  0.40774107  0.95440336    -0.57500
O406        O  0.46909481  0.51954467  0.89950155    -0.94100
O407        O  0.51326943  0.46025860  0.90702743    -0.92600
O408        O  0.41190806  0.44087405  0.51399892    -0.92900
O409        O  0.35334024  0.51260051  0.50692829    -0.91700
C410        C  0.49009313  0.47916409  0.88978117     1.17300
H411        H  0.51355320  0.45991321  0.51858238     0.33300
H412        H  0.40310754  0.60450495  0.50799874     0.44100
H413        H  0.55445977  0.53968567  0.91777924     0.37700
H414        H  0.59019944  0.63711734  0.53260532     0.34200
H415        H  0.35854006  0.54093252  0.57305560     0.25900
H416        H  0.52470451  0.73271813  0.52224471     0.31900
H417        H  0.58229065  0.70237313  0.97166660     0.37800
H418        H  0.40066185  0.43217833  0.49260716     0.32200
H419        H  0.46069235  0.41608249  0.95241103     0.31100
H420        H  0.63280485  0.45816457  0.93070452     0.32800
H421        H  0.67031831  0.59519140  0.91872525     0.31800
H422        H  0.35278524  0.52943436  0.49029215     0.35800
H423        H  0.37917217  0.53317393  0.93205964     0.28500
H424        H  0.63048820  0.54014488  0.58422944     0.32700
H425        H  0.68079120  0.59016461  0.99160240     0.35600
H426        H  0.50559122  0.38791912  0.93316170     0.28200
H427        H  0.36341645  0.58449553  0.94956693     0.41100
H428        H  0.42916577  0.70042472  0.58607044     0.31100
H429        H  0.38874764  0.58625963  0.57820019     0.38700
H430        H  0.64131198  0.54923114  0.90977692     0.30600
H431        H  0.49797710  0.74568985  0.55639080     0.30700
H432        H  0.65573715  0.56981437  0.56274764     0.30900
N433        N  0.41064433  0.33180693  0.69740102    -0.03600
C434        C  0.39629966  0.28753519  0.68520638    -0.01000
C435        C  0.42101552  0.25715769  0.69744243    -0.23900
C436        C  0.44850578  0.28361638  0.71929124    -0.24100
C437        C  0.44063897  0.32948409  0.71935500    -0.01100
H438        H  0.41313272  0.22077930  0.69524157     0.12700
H439        H  0.46698105  0.27104196  0.73604375     0.12700
N440        N  0.65110195  0.78386772  0.76067366    -0.03600
C441        C  0.66513461  0.82899752  0.76737689    -0.01000
C442        C  0.64017374  0.85487333  0.79498032    -0.23900
C443        C  0.61103454  0.82479679  0.80626807    -0.24100
C444        C  0.61891711  0.78145150  0.78521353    -0.01100
H445        H  0.64722643  0.89031559  0.80775168     0.12700
H446        H  0.59126243  0.83242915  0.82942954     0.12700
Zr447      Zr  0.05545180  0.10929816  0.69190937     2.17500
O448        O  0.04036929  0.17960861  0.67525338    -0.51400
O449        O  0.10857793  0.06934191  0.64625880    -0.74600
O450        O  0.12599060  0.15770842  0.69530401    -0.81400
O451        O  0.94068032  0.05565464  0.66172980    -0.83200
O452        O  0.15391107  0.15814196  0.74226030    -0.78800
O453        O  0.00259551  0.09992565  0.65046083    -0.90400
O454        O  0.12384692  0.99598698  0.64981020    -0.76400
O455        O  0.11284093  0.06950005  0.71205912    -0.85900
O456        O  0.03150374  0.03014934  0.68140189    -0.85600
O457        O  0.05130401  0.14815807  0.74741606    -0.72300
O458        O  0.97677281  0.11172956  0.71921318    -0.84500
Zr459      Zr  0.00763412  0.02654319  0.78458531     2.26400
Zr460      Zr  0.10780862  0.10621092  0.76735126     2.06300
Zr461      Zr  0.95411811  0.03201626  0.70898880     2.10000
Zr462      Zr  0.08903383  0.99063492  0.70166388     1.78800
O463        O  0.87143468  0.05950279  0.71496288    -0.93300
O464        O  0.17505544  0.98307439  0.70279814    -0.41100
O465        O  0.01079107  0.98956350  0.72868397    -0.77700
O466        O  0.08622614  0.02591797  0.75745596    -0.96400
O467        O  0.03097356  0.10601332  0.79528915    -0.89700
O468        O  0.95018612  0.06740643  0.76458715    -0.92500
C469        C  0.12761941  0.02844099  0.63535631     1.01200
C470        C  0.96287144  0.07954552  0.64457118     1.14100
C471        C  0.15508311  0.17115811  0.71656545     1.04900
O472        O  0.19069335  0.08060982  0.76389564    -0.94700
O473        O  0.11960540  0.08569202  0.81575161    -0.90400
O474        O  0.06233960  0.03607394  0.82621147    -0.83600
C475        C  0.10025046  0.05997115  0.83262258     1.11600
O476        O  0.95124701  0.21779976  0.76271814    -0.96700
Zr477      Zr  0.97408051  0.14626116  0.77526830     1.88900
O478        O  0.95802813  0.06628271  0.83239728    -0.73300
O479        O  0.11930850  0.17904583  0.80680043    -0.52600
O480        O  0.00600176  0.21562903  0.80961643    -0.97300
O481        O  0.88859621  0.16166005  0.77744383    -0.54500
O482        O  0.94388453  0.13929724  0.82773811    -0.73800
C483        C  0.94107571  0.10809593  0.84331681     0.98500
O484        O  0.02119129  0.95256541  0.79696316    -0.62700
O485        O  0.93998824  0.96221100  0.66752716    -0.57500
O486        O  0.93810514  0.97593271  0.77813929    -0.94100
O487        O  0.90703354  0.98013487  0.73302957    -0.92600
O488        O  0.06505708  0.91835114  0.66609452    -0.92900
O489        O  0.11035667  0.92112512  0.71724477    -0.91700
C490        C  0.90713801  0.96485854  0.75769286     1.17300
H491        H  0.03013077  0.01609742  0.65875111     0.33300
H492        H  0.10838940  0.00921390  0.76626808     0.44100
H493        H  0.91844179  0.06534467  0.77462870     0.37700
H494        H  0.06061942  0.18041350  0.75033683     0.34200
H495        H  0.18526073  0.95701954  0.68416145     0.25900
H496        H  0.09669418  0.17798051  0.82526418     0.31900
H497        H  0.00283769  0.21022130  0.83098222     0.37800
H498        H  0.05874088  0.92678077  0.64649177     0.32200
H499        H  0.95552980  0.93655735  0.67369226     0.31100
H500        H  0.85616876  0.03727841  0.69791148     0.32800
H501        H  0.87306728  0.14158401  0.79008839     0.31800
H502        H  0.08465099  0.91866523  0.73369395     0.35800
H503        H  0.05627278  0.94733556  0.79356492     0.28500
H504        H  0.06451092  0.17848138  0.65713168     0.32700
H505        H  0.96573667  0.21430653  0.74079238     0.35600
H506        H  0.90530087  0.95666665  0.67055962     0.28200
H507        H  0.01344582  0.95889217  0.82013668     0.41100
H508        H  0.20786901  0.10917924  0.77361564     0.31100
H509        H  0.18856989  0.01112986  0.69731266     0.38700
H510        H  0.88030763  0.14764093  0.75564556     0.30600
H511        H  0.15127850  0.17554177  0.81370168     0.30700
H512        H  0.04990011  0.20586463  0.69246303     0.30900
C513        C  0.71316436  0.84369296  0.75747628    -0.05300
C514        C  0.72584040  0.84765344  0.72672326    -0.05300
C515        C  0.76840600  0.86958278  0.71993944    -0.23400
C516        C  0.79846562  0.88788777  0.74391613     0.18800
C517        C  0.78692444  0.88167576  0.77444013     0.16000
C518        C  0.74483509  0.85916112  0.78083087    -0.18500
C519        C  0.81656148  0.89976595  0.79851354    -0.20300
C520        C  0.85661780  0.92541072  0.79278721    -0.12900
C521        C  0.86775045  0.93342992  0.76287768     0.03800
C522        C  0.83889202  0.91362705  0.73830278    -0.25000
H523        H  0.70194109  0.83580351  0.70845052     0.08900
H524        H  0.77696367  0.87369373  0.69629094     0.12500
H525        H  0.73544925  0.85556171  0.80456342     0.12400
H526        H  0.80803262  0.89514253  0.82203955     0.12200
H527        H  0.87797941  0.94024032  0.81208942     0.12700
H528        H  0.84712124  0.91919723  0.71500097     0.14700
C529        C  0.19225216  0.20470551  0.71214872    -0.05300
C530        C  0.20319857  0.23981817  0.73865075    -0.05300
C531        C  0.24154917  0.26901189  0.73656808    -0.23400
C532        C  0.27055549  0.26280214  0.70808609     0.18800
C533        C  0.25928167  0.22852122  0.68083664     0.16000
C534        C  0.21932124  0.20018708  0.68285457    -0.18500
C535        C  0.29021488  0.22108774  0.65285846    -0.20300
C536        C  0.33388537  0.24416932  0.65287751    -0.12900
C537        C  0.34598461  0.27642260  0.68039193     0.03800
C538        C  0.31289128  0.28759958  0.70728755    -0.25000
H539        H  0.18247947  0.24404216  0.76130826     0.08900
H540        H  0.24987029  0.29498019  0.75765875     0.12500
H541        H  0.21132619  0.17277231  0.66240002     0.12400
H542        H  0.28230016  0.19504953  0.63170752     0.12200
H543        H  0.35948414  0.23469411  0.63215156     0.12700
H544        H  0.32283087  0.31161507  0.72882340     0.14700
C545        C  0.41288292  0.36744686  0.68030353    -0.05300
C546        C  0.37432162  0.37610002  0.66435715    -0.05300
C547        C  0.37915449  0.40634604  0.64465016    -0.23400
C548        C  0.42285060  0.42799347  0.64020357     0.18800
C549        C  0.46145073  0.42049435  0.65667143     0.16000
C550        C  0.45610303  0.39075117  0.67671015    -0.18500
C551        C  0.50549178  0.44120920  0.65178364    -0.20300
C552        C  0.51193363  0.46751150  0.62966555    -0.12900
C553        C  0.47427696  0.47398874  0.61226562     0.03800
C554        C  0.42926057  0.45527118  0.61851934    -0.25000
H555        H  0.34065336  0.35901528  0.66671987     0.08900
H556        H  0.34913873  0.41173822  0.63217094     0.12500
H557        H  0.48663056  0.38381061  0.68819656     0.12400
H558        H  0.53544176  0.43580386  0.66431921     0.12200
H559        H  0.54684502  0.48158365  0.62553604     0.12700
H560        H  0.39966620  0.46002533  0.60548153     0.14700
C561        C  0.49018955  0.45226824  0.85634818    -0.05300
C562        C  0.52488931  0.41647679  0.84390659    -0.05300
C563        C  0.52550397  0.38914773  0.81296278    -0.23400
C564        C  0.49093890  0.39640039  0.79387223     0.18800
C565        C  0.45652996  0.43289753  0.80561733     0.16000
C566        C  0.45672209  0.46113617  0.83675126    -0.18500
C567        C  0.42130973  0.43900744  0.78645052    -0.19900
C568        C  0.41814471  0.40719452  0.75702517    -0.12900
C569        C  0.45078041  0.36938437  0.74606662     0.03800
C570        C  0.48859715  0.36581104  0.76393403    -0.25000
H571        H  0.55173892  0.40924522  0.85819923     0.08900
H572        H  0.55214299  0.36138618  0.80430854     0.12500
H573        H  0.42991525  0.48859994  0.84602951     0.12400
H574        H  0.39470239  0.46680963  0.79490999     0.12200
H575        H  0.38832850  0.41057244  0.74385652     0.12700
H576        H  0.51437649  0.33722819  0.75549192     0.14700
C577        C  0.57216844  0.68377586  0.62570417    -0.05300
C578        C  0.55374984  0.72972411  0.63741296    -0.05300
C579        C  0.56868523  0.75936435  0.66495318    -0.23400
C580        C  0.60184075  0.74369448  0.68193035     0.18800
C581        C  0.62072839  0.69771593  0.67081681     0.16000
C582        C  0.60623142  0.66818369  0.64256675    -0.18500
C583        C  0.65271874  0.68186474  0.68870706    -0.20300
C584        C  0.66437190  0.71068155  0.71776872    -0.12900
C585        C  0.64544994  0.75626479  0.72895443     0.03800
C586        C  0.61493443  0.77276641  0.71050431    -0.25000
H587        H  0.52765348  0.74307821  0.62521300     0.08900
H588        H  0.55365558  0.79444262  0.67325579     0.12500
H589        H  0.62092488  0.63299700  0.63403464     0.12400
H590        H  0.66753334  0.64669769  0.68071976     0.12200
H591        H  0.68737818  0.69714371  0.73181805     0.12700
H592        H  0.59945896  0.80762080  0.71938610     0.14700
C593        C  0.60984764  0.73914346  0.79627092    -0.05300
C594        C  0.64890530  0.71346277  0.80111505    -0.05300
C595        C  0.64329622  0.68473595  0.82179107    -0.23400
C596        C  0.59856807  0.68161552  0.83810273     0.18800
C597        C  0.55851046  0.70494012  0.83163308     0.16000
C598        C  0.56434355  0.73310238  0.81050361    -0.18500
C599        C  0.51386012  0.70232874  0.84800385    -0.20300
C600        C  0.50911511  0.67814532  0.87132366    -0.12900
C601        C  0.54890625  0.65609416  0.87881295     0.03800
C602        C  0.59357819  0.65746960  0.86177416    -0.25000
H603        H  0.68453148  0.71882810  0.79114951     0.08900
H604        H  0.67442279  0.66714266  0.82639118     0.12500
H605        H  0.53432776  0.75356458  0.80724309     0.12400
H606        H  0.48283648  0.72008838  0.84340583     0.12200
H607        H  0.47437326  0.67791667  0.88422207     0.12700
H608        H  0.62444513  0.64043821  0.86725065     0.14700
C609        C  0.22903636  0.94641854  0.49163940    -0.05300
C610        C  0.20873299  0.90959623  0.50252398    -0.05300
C611        C  0.18496688  0.91810888  0.53298036    -0.23400
C612        C  0.18165104  0.96355761  0.55307520     0.18800
C613        C  0.20146385  0.00084743  0.54199149     0.16000
C614        C  0.22453663  0.99205714  0.51127990    -0.18500
C615        C  0.19850446  0.04622433  0.56195659    -0.20300
C616        C  0.17530168  0.05484178  0.59246854    -0.12900
C617        C  0.15490363  0.01822285  0.60372777     0.03800
C618        C  0.15885211  0.97242473  0.58398574    -0.25000
H619        H  0.22616031  0.88071236  0.98946822     0.08900
H620        H  0.16981847  0.88910590  0.54098032     0.12500
H621        H  0.24073454  0.02038683  0.50295171     0.12400
H622        H  0.21388833  0.07511206  0.55391308     0.12200
H623        H  0.17320705  0.09032644  0.60730239     0.12700
H624        H  0.14317397  0.94392707  0.59236539     0.14700
C625        C  0.12542933  0.05727263  0.86045202    -0.05300
C626        C  0.16241393  0.08866511  0.86974865    -0.05300
C627        C  0.19279928  0.08225771  0.89159010    -0.23400
C628        C  0.18690649  0.04438349  0.90482650     0.18800
C629        C  0.14757488  0.01478103  0.89796292     0.16000
C630        C  0.11678596  0.02151263  0.87586080    -0.18500
C631        C  0.14180691  0.97719972  0.91176222    -0.20300
C632        C  0.17690421  0.96663743  0.92965443    -0.12900
C633        C  0.21824245  0.99345422  0.93398097     0.03800
C634        C  0.22171370  0.03370737  0.92288398    -0.25000
H635        H  0.16939123  0.11729706  0.85905251     0.08900
H636        H  0.22228937  0.10574549  0.89699545     0.12500
H637        H  0.08822891  0.99729132  0.86926268     0.12400
H638        H  0.11167961  0.95433856  0.90715232     0.12200
H639        H  0.17368144  0.93522012  0.93774950     0.12700
H640        H  0.25354797  0.05455446  0.92611355     0.14700
C641        C  0.32296255  0.88804294  0.97019892    -0.05300
C642        C  0.33586439  0.89507227  0.00114277    -0.05300
C643        C  0.35635818  0.85824923  0.01042313    -0.23400
C644        C  0.36432114  0.81410118  0.98877901     0.18800
C645        C  0.34993527  0.80702365  0.95796432     0.16000
C646        C  0.32939237  0.84378481  0.94901658    -0.18500
C647        C  0.35743673  0.76360586  0.93607223    -0.20300
C648        C  0.37990067  0.72741830  0.94419448    -0.12900
C649        C  0.39557026  0.73355489  0.97448128     0.03800
C650        C  0.38718222  0.77720133  0.99691933    -0.25000
H651        H  0.33142852  0.92922822  0.01769979     0.08900
H652        H  0.36692694  0.86455361  0.03421046     0.12500
H653        H  0.31951207  0.83838956  0.92508148     0.12400
H654        H  0.34653790  0.75776786  0.91238012     0.12200
H655        H  0.38567543  0.69461341  0.92628008     0.12700
H656        H  0.39890947  0.78265076  0.02036335     0.14700
C657        C  0.87338380  0.17089327  0.54562229    -0.05300
C658        C  0.92179256  0.18251997  0.54560785    -0.05300
C659        C  0.95235678  0.16096950  0.56110885    -0.23400
C660        C  0.93432587  0.12814798  0.57690711     0.18800
C661        C  0.88718838  0.11230393  0.57331738     0.16000
C662        C  0.85731817  0.13323026  0.55713078    -0.18500
C663        C  0.86893006  0.07950842  0.58886165    -0.20300
C664        C  0.89516067  0.06626242  0.61052563    -0.12900
C665        C  0.94008862  0.08557211  0.61689530     0.03800
C666        C  0.96072633  0.11432651  0.59853279    -0.25000
H667        H  0.93456069  0.21169053  0.53684436     0.08900
H668        H  0.98869997  0.17289732  0.56311509     0.12500
H669        H  0.81977170  0.12456569  0.55721129     0.12400
H670        H  0.83314788  0.06643322  0.58583834     0.12200
H671        H  0.87895118  0.04297014  0.62360584     0.12700
H672        H  0.99571909  0.12881877  0.60272892     0.14700
C673        C  0.91791363  0.12217725  0.87638366    -0.05300
C674        C  0.90197078  0.08885488  0.89248064    -0.05300
C675        C  0.88123450  0.10287478  0.92387830    -0.23400
C676        C  0.87693244  0.15043580  0.93999833     0.18800
C677        C  0.89354994  0.18403768  0.92419385     0.16000
C678        C  0.91322279  0.16979714  0.89255645    -0.18500
C679        C  0.89082654  0.23147080  0.94038997    -0.20300
C680        C  0.87137622  0.24566978  0.97188420    -0.12900
C681        C  0.85339783  0.21291345  0.98773276     0.03800
C682        C  0.85653853  0.16510867  0.97160158    -0.25000
H683        H  0.90529528  0.05194752  0.88074830     0.08900
H684        H  0.86897572  0.07652317  0.93563387     0.12500
H685        H  0.92591048  0.19597416  0.88074380     0.12400
H686        H  0.90406430  0.25764042  0.92874760     0.12200
H687        H  0.87071713  0.28239987  0.98395656     0.12700
H688        H  0.84251392  0.13950353  0.98348851     0.14700
C689        C  0.65374326  0.40052460  0.49974632    -0.05300
C690        C  0.63026940  0.35625580  0.99475037    -0.05300
C691        C  0.66037169  0.31861515  0.99373917    -0.23400
C692        C  0.70706796  0.32632941  0.00219964     0.18800
C693        C  0.72786049  0.37311515  0.51403982     0.16000
C694        C  0.69664367  0.40990198  0.51397857    -0.18500
C695        C  0.77031804  0.38207173  0.52868154    -0.20300
C696        C  0.79822940  0.34513817  0.53182134    -0.12900
C697        C  0.78072984  0.29733151  0.01584365     0.03800
C698        C  0.73589787  0.28896948  0.00421384    -0.25000
H699        H  0.59417976  0.34936196  0.98828937     0.08900
H700        H  0.64679920  0.28354047  0.98694411     0.12500
H701        H  0.70560723  0.44562337  0.52501975     0.12400
H702        H  0.78055368  0.41754739  0.53921120     0.12200
H703        H  0.82867865  0.35272719  0.54557874     0.12700
H704        H  0.72154584  0.25413464  0.99995267     0.14700
loop_ 
_geom_bond_atom_site_label_1 
_geom_bond_atom_site_label_2 
_geom_bond_distance 
_geom_bond_site_symmetry_2 
_ccdc_geom_bond_type 
N1            C2   1.362       .  A
N1          C357   1.358       .  A
N1          C329   1.449       .  S
C2          C345   1.467       .  S
C2          C355   1.379       .  A
C3            C4   1.365       .  A
C3          C354   1.378       .  A
C3            H6   1.083       .  S
C4            C5   1.383       .  A
C4            H7   1.083       .  S
C5          N353   1.361       .  A
C5          C305   1.476       .  S
N8           C12   1.356       .  A
N8            C9   1.355       .  A
N8          C609   1.438       .  S
C9          C289   1.475       .  S
C9           C10   1.381       .  A
C10          C11   1.373       .  A
C10          H13   1.082       .  S
C11          C12   1.383       .  A
C11          H14   1.082       .  S
C12         C281   1.476       .  S
Zr15         O16   2.441       .  S
Zr15         O17   2.454       .  S
Zr15         O18   2.448       .  S
Zr15         O21   2.467       .  S
Zr15         O23   2.391       .  S
Zr15         O24   2.380       .  S
Zr15         O25   2.417       .  S
Zr15        O378   2.405   1_554  S
O16          H72   0.989       .  S
O16          H80   0.991       .  S
O17          C37   1.290       .  A
O18          C39   1.287       .  A
O19         Zr29   2.400       .  S
O19         C390   1.279       .  A
O20         Zr28   2.441       .  S
O20          C39   1.288       .  A
O21          C38   1.291       .  A
O22         Zr30   2.409       .  S
O22          C37   1.280       .  A
O23         Zr28   2.389       .  S
O23         Zr30   2.379       .  S
O24         Zr30   2.381       .  S
O24        Zr381   2.377   1_554  S
O24          H59   0.970       .  S
O25         Zr28   2.404       .  S
O25        Zr397   2.397   1_554  S
O25          H62   0.969       .  S
O26         Zr29   2.394       .  S
O26         Zr45   2.403       .  S
O26        Zr367   2.407       .  S
Zr27         O52   2.438       .  S
Zr27         O46   2.402       .  S
Zr27         O54   2.447       .  S
Zr27         O42   2.403       .  S
Zr27         O33   2.396       .  S
Zr27         O35   2.384       .  S
Zr27         O36   2.377       .  S
Zr27        O386   2.401       .  S
Zr28         O47   2.434       .  S
Zr28         O40   2.434       .  S
Zr28         O41   2.456       .  S
Zr28         O34   2.392       .  S
Zr28        O387   2.388   1_554  S
Zr29         O31   2.438       .  S
Zr29         O53   2.437       .  S
Zr29         O55   2.411       .  S
Zr29         O33   2.385       .  S
Zr29         O36   2.381       .  S
Zr29        O376   2.384       .  S
Zr30         O56   2.436       .  S
Zr30         O57   2.437       .  S
Zr30         O32   2.439       .  S
Zr30         O34   2.388       .  S
Zr30        O385   2.397   1_554  S
O31          H68   0.991       .  S
O32          H63   0.990       .  S
O32          H77   0.990       .  S
O33        Zr382   2.402       .  S
O34        Zr379   2.407   1_554  S
O34          H60   0.974       .  S
O35         Zr45   2.367       .  S
O35        Zr380   2.391       .  S
O36         Zr45   2.361       .  S
O36          H61   0.969       .  S
C37         C201   1.486       .  S
C38         C337   1.477       .  S
C38         O371   1.278   1_554  A
C39         C225   1.496       .  S
O40          H76   0.990       .  S
O41         C395   1.289   1_554  A
O42          C43   1.282       .  A
C43         C297   1.487       .  S
C43         O393   1.289       .  A
O44         Zr45   2.434       .  S
O44          H73   0.991       .  S
Zr45         O48   2.434       .  S
Zr45         O49   2.440       .  S
Zr45         O50   2.459       .  S
Zr45        O377   2.397       .  S
O46          C51   1.279       .  A
O47          H64   0.989       .  S
O47          H79   0.991       .  S
O48          H65   0.990       .  S
O49          H69   0.990       .  S
O49          H78   0.989       .  S
O50          C51   1.289       .  A
C51         C249   1.482       .  S
O52          H71   0.989       .  S
O52          H75   0.991       .  S
O53          H67   0.989       .  S
O53          H74   0.990       .  S
O54          C58   1.287       .  A
O55          C58   1.282       .  A
O56          H66   0.990       .  S
O57          H70   0.990   1_554  S
C58         C209   1.481       .  S
N81          C85   1.356       .  A
N81          C82   1.359       .  A
N81         C193   1.447       .  S
C82         C185   1.476       .  S
C82          C83   1.385       .  A
C83          C84   1.371       .  A
C83          H86   1.083       .  S
C84          C85   1.381       .  A
C84          H87   1.082       .  S
C85         C217   1.486       .  S
N88          C92   1.359       .  A
N88          C89   1.361       .  A
N88         C233   1.444       .  S
C89         C161   1.479       .  S
C89          C90   1.383       .  A
C90          C91   1.367       .  A
C90          H93   1.083       .  S
C91          C92   1.380       .  A
C91          H94   1.083       .  S
C92         C241   1.477       .  S
Zr95         O96   2.438       .  S
Zr95         O97   2.413       .  S
Zr95         O98   2.433       .  S
Zr95        O101   2.438   1_455  S
Zr95        O103   2.380       .  S
Zr95        O104   2.380       .  S
Zr95        O105   2.405       .  S
Zr95        O106   2.400   1_455  S
O96         H152   0.991       .  S
O96         H160   0.989       .  S
O97         C117   1.281       .  A
O98         C119   1.283       .  A
O99        Zr109   2.425       .  S
O99         C118   1.284       .  A
O100       Zr108   2.429       .  S
O100        C119   1.285       .  A
O101        C118   1.286       .  A
O102       Zr110   2.447       .  S
O102        C117   1.286   1_565  A
O103       Zr108   2.389       .  S
O103       Zr110   2.376   1_545  S
O104       Zr109   2.381   1_455  S
O104       Zr110   2.372   1_545  S
O104        H139   0.971       .  S
O105       Zr108   2.395       .  S
O105       Zr125   2.397   1_455  S
O105        H142   0.972       .  S
O106       Zr109   2.389       .  S
O106       Zr125   2.397       .  S
Zr107       O132   2.442   1_545  S
Zr107       O126   2.453   1_455  S
Zr107       O134   2.447   1_445  S
Zr107       O122   2.443       .  S
Zr107       O113   2.413   1_545  S
Zr107       O114   2.414       .  S
Zr107       O115   2.382       .  S
Zr107       O116   2.384   1_455  S
Zr108       O127   2.438       .  S
Zr108       O120   2.433       .  S
Zr108       O121   2.430       .  S
Zr108       O114   2.394       .  S
Zr108       O115   2.382       .  S
Zr109       O111   2.435       .  S
Zr109       O133   2.438   1_545  S
Zr109       O135   2.419   1_545  S
Zr109       O113   2.392   1_645  S
Zr109       O116   2.393       .  S
Zr110       O136   2.435       .  S
Zr110       O137   2.436       .  S
Zr110       O112   2.438       .  S
Zr110       O113   2.407       .  S
Zr110       O114   2.406   1_565  S
O111        H148   0.990       .  S
O112        H143   0.990       .  S
O112        H157   0.990   1_565  S
O114        H140   0.964       .  S
O115       Zr125   2.371   1_455  S
O116       Zr125   2.373       .  S
O116        H141   0.956       .  S
C117        C265   1.484       .  S
C118        C313   1.487       .  S
C119        C177   1.475       .  S
O120        H156   0.990       .  S
O121        C123   1.286       .  A
O122        C123   1.287       .  A
C123        C273   1.487       .  S
O124       Zr125   2.435       .  S
O124        H153   0.990       .  S
Zr125       O128   2.437       .  S
Zr125       O129   2.439       .  S
Zr125       O130   2.437       .  S
O126        C131   1.289       .  A
O127        H144   0.990       .  S
O127        H159   0.990       .  S
O128        H145   0.990   1_655  S
O129        H149   0.990       .  S
O129        H158   0.990       .  S
O130        C131   1.286       .  A
C131        C321   1.495       .  S
O132        H151   0.990       .  S
O132        H155   0.990       .  S
O133        H147   0.990       .  S
O133        H154   0.990       .  S
O134        C138   1.289       .  A
O135        C138   1.283       .  A
O136        H146   0.989       .  S
O137        H150   0.990       .  S
C138        C169   1.485       .  S
C161        C162   1.401       .  A
C161        C166   1.408       .  A
C162        C163   1.403       .  A
C162        H171   1.082       .  S
C163        C164   1.407       .  A
C163        H172   1.083       .  S
C164        C170   1.405       .  A
C164        C165   1.411       .  A
C165        C167   1.402       .  A
C165        C166   1.400       .  A
C166        H173   1.085       .  S
C167        C168   1.396       .  A
C167        H174   1.084       .  S
C168        C169   1.406       .  A
C168        H175   1.083       .  S
C169        C170   1.412       .  A
C170        H176   1.084       .  S
C177        C178   1.403       .  A
C177        C182   1.408       .  A
C178        C179   1.394       .  A
C178        H187   1.083       .  S
C179        C180   1.401       .  A
C179        H188   1.084       .  S
C180        C186   1.400       .  A
C180        C181   1.414       .  A
C181        C183   1.406       .  A
C181        C182   1.408       .  A
C182        H189   1.084       .  S
C183        C184   1.402       .  A
C183        H190   1.083       .  S
C184        C185   1.403       .  A
C184        H191   1.083       .  S
C185        C186   1.403       .  A
C186        H192   1.085       .  S
C193        C194   1.404       .  A
C193        C198   1.412       .  A
C194        C195   1.401       .  A
C194        H203   1.081       .  S
C195        C196   1.405       .  A
C195        H204   1.083       .  S
C196        C202   1.405       .  A
C196        C197   1.410       .  A
C197        C199   1.403       .  A
C197        C198   1.399       .  A
C198        H205   1.083       .  S
C199        C200   1.397       .  A
C199        H206   1.084       .  S
C200        C201   1.405       .  A
C200        H207   1.083       .  S
C201        C202   1.414       .  A
C202        H208   1.084       .  S
C209        C210   1.409       .  A
C209        C214   1.407       .  A
C210        C211   1.389       .  A
C210        H219   1.083       .  S
C211        C212   1.395       .  A
C211        H220   1.084       .  S
C212        C218   1.399       .  A
C212        C213   1.415       .  A
C213        C215   1.402       .  A
C213        C214   1.408       .  A
C214        H221   1.084       .  S
C215        C216   1.399       .  A
C215        H222   1.083       .  S
C216        C217   1.408       .  A
C216        H223   1.082       .  S
C217        C218   1.401       .  A
C218        H224   1.084       .  S
C225        C226   1.409       .  A
C225        C230   1.414       .  A
C226        C227   1.398       .  A
C226        H235   1.083       .  S
C227        C228   1.401       .  A
C227        H236   1.084       .  S
C228        C234   1.405       .  A
C228        C229   1.412       .  A
C229        C231   1.407       .  A
C229        C230   1.412       .  A
C230        H237   1.084       .  S
C231        C232   1.405       .  A
C231        H238   1.083       .  S
C232        C233   1.404       .  A
C232        H239   1.081       .  S
C233        C234   1.407       .  A
C234        H240   1.084       .  S
C241        C242   1.404       .  A
C241        C246   1.404       .  A
C242        C243   1.398       .  A
C242        H251   1.083       .  S
C243        C244   1.402       .  A
C243        H252   1.084       .  S
C244        C250   1.406       .  A
C244        C245   1.415       .  A
C245        C247   1.401       .  A
C245        C246   1.404       .  A
C246        H253   1.085       .  S
C247        C248   1.397       .  A
C247        H254   1.084       .  S
C248        C249   1.409       .  A
C248        H255   1.083       .  S
C249        C250   1.405       .  A
C250        H256   1.084       .  S
C257        N360   1.441       .  S
C257        C258   1.405   1_556  A
C257        C262   1.403   1_556  A
C258        C259   1.402       .  A
C258        H619   1.082   1_554  S
C259        C260   1.405       .  A
C259        H268   1.083       .  S
C260        C266   1.409       .  A
C260        C261   1.414   1_565  A
C261        C263   1.399       .  A
C261        C262   1.401   1_545  A
C262        H269   1.084   1_565  S
C263        C264   1.393       .  A
C263        H270   1.084       .  S
C264        C265   1.408       .  A
C264        H271   1.083       .  S
C265        C266   1.409   1_545  A
C266        H272   1.084       .  S
H267        C610   1.083       .  S
C273        C274   1.408       .  A
C273        C278   1.410       .  A
C274        C275   1.394       .  A
C274        H283   1.083       .  S
C275        C276   1.399       .  A
C275        H284   1.084       .  S
C276        C282   1.404       .  A
C276        C277   1.415       .  A
C277        C279   1.404   1_545  A
C277        C278   1.410       .  A
C278        H285   1.084   1_545  S
C279        C280   1.401       .  A
C279        H286   1.083       .  S
C280        C281   1.404       .  A
C280        H287   1.083       .  S
C281        C282   1.402   1_565  A
C282        H288   1.085       .  S
C289        C290   1.403       .  A
C289        C294   1.398       .  A
C290        C291   1.405       .  A
C290        H299   1.083       .  S
C291        C292   1.407       .  A
C291        H300   1.083       .  S
C292        C298   1.412       .  A
C292        C293   1.414       .  A
C293        C295   1.394       .  A
C293        C294   1.397       .  A
C294        H301   1.085       .  S
C295        C296   1.387       .  A
C295        H302   1.084       .  S
C296        C297   1.410       .  A
C296        H303   1.083       .  S
C297        C298   1.411       .  A
C298        H304   1.084       .  S
C305        C306   1.403       .  A
C305        C310   1.403       .  A
C306        C307   1.403       .  A
C306        H315   1.083       .  S
C307        C308   1.406       .  A
C307        H316   1.083       .  S
C308        C314   1.408       .  A
C308        C309   1.413       .  A
C309        C311   1.399       .  A
C309        C310   1.399       .  A
C310        H317   1.085       .  S
C311        C312   1.394       .  A
C311        H318   1.084       .  S
C312        C313   1.408       .  A
C312        H319   1.083       .  S
C313        C314   1.411       .  A
C314        H320   1.084       .  S
C321        C322   1.408       .  A
C321        C326   1.411       .  A
C322        C323   1.404       .  A
C322        H331   1.083       .  S
C323        C324   1.405       .  A
C323        H332   1.084       .  S
C324        C330   1.410       .  A
C324        C325   1.412       .  A
C325        C327   1.403       .  A
C325        C326   1.407       .  A
C326        H333   1.084       .  S
C327        C328   1.399       .  A
C327        H334   1.083       .  S
C328        C329   1.404       .  A
C328        H335   1.081       .  S
C329        C330   1.412       .  A
C330        H336   1.083       .  S
C337        C342   1.405       .  A
C337        C690   1.406   1_554  A
C338        C339   1.394       .  A
C338        C689   1.408       .  A
C338        H347   1.083       .  S
C339        C340   1.398       .  A
C339        H348   1.084       .  S
C340        C346   1.404       .  A
C340        C693   1.417       .  A
C341        C343   1.402       .  A
C341        C342   1.408       .  A
C341        C692   1.416       .  A
C342        H349   1.084       .  S
C343        C344   1.399       .  A
C343        H350   1.083       .  S
C344        C697   1.403       .  A
C344        H351   1.083       .  S
C345        C346   1.399       .  A
C345        C696   1.403       .  A
C346        H352   1.085       .  S
N353        C354   1.362       .  A
N353        C681   1.446   1_554  S
C354        C697   1.471       .  S
C355        C356   1.364       .  A
C355        H358   1.083       .  S
C356        C357   1.382       .  A
C356        H359   1.083       .  S
C357        C657   1.468       .  S
N360        C364   1.361       .  A
N360        C361   1.359       .  A
C361        C641   1.479       .  S
C361        C362   1.381       .  A
C362        C363   1.372       .  A
C362        H365   1.082       .  S
C363        C364   1.383       .  A
C363        H366   1.082       .  S
C364        C633   1.485       .  S
Zr367       O368   2.440       .  S
Zr367       O369   2.444       .  S
Zr367       O370   2.458       .  S
Zr367       O373   2.457       .  S
Zr367       O375   2.388       .  S
Zr367       O376   2.384       .  S
Zr367       O377   2.414       .  S
O368        H424   0.990       .  S
O368        H432   0.990       .  S
O369        C389   1.286       .  A
O370        C391   1.288       .  A
O371       Zr381   2.399       .  S
O372       Zr380   2.437       .  S
O372        C391   1.287       .  A
O373        C390   1.289       .  A
O374       Zr382   2.408       .  S
O374        C389   1.280       .  A
O375       Zr380   2.396       .  S
O375       Zr382   2.382       .  S
O376       Zr382   2.377       .  S
O376        H411   0.969       .  S
O377       Zr380   2.404       .  S
O377        H414   0.969       .  S
O378       Zr381   2.390       .  S
O378       Zr397   2.410       .  S
Zr379       O404   2.436       .  S
Zr379       O398   2.412       .  S
Zr379       O406   2.455       .  S
Zr379       O394   2.420       .  S
Zr379       O385   2.393       .  S
Zr379       O387   2.382       .  S
Zr379       O388   2.373       .  S
Zr380       O399   2.436       .  S
Zr380       O392   2.435       .  S
Zr380       O393   2.456       .  S
Zr380       O386   2.395       .  S
Zr381       O383   2.436       .  S
Zr381       O405   2.437       .  S
Zr381       O407   2.395       .  S
Zr381       O385   2.383       .  S
Zr381       O388   2.380       .  S
Zr382       O408   2.438       .  S
Zr382       O409   2.436       .  S
Zr382       O384   2.434       .  S
Zr382       O386   2.387       .  S
O383        H420   0.990       .  S
O384        H415   0.991       .  S
O384        H429   0.989       .  S
O386        H412   0.973       .  S
O387       Zr397   2.362       .  S
O388       Zr397   2.363       .  S
O388        H413   0.963       .  S
C389        C553   1.485       .  S
C390        C689   1.479       .  S
C391        C577   1.498       .  S
O392        H428   0.990       .  S
O394        C395   1.286       .  A
C395        C649   1.491       .  S
O396       Zr397   2.435       .  S
O396        H425   0.990       .  S
Zr397       O400   2.436       .  S
Zr397       O401   2.440       .  S
Zr397       O402   2.448       .  S
O398        C403   1.282       .  A
O399        H416   0.990       .  S
O399        H431   0.990       .  S
O400        H417   0.991       .  S
O401        H421   0.991       .  S
O401        H430   0.990       .  S
O402        C403   1.287       .  A
C403        C601   1.481       .  S
O404        H423   0.991       .  S
O404        H427   0.990       .  S
O405        H419   0.989       .  S
O405        H426   0.991       .  S
O406        C410   1.289       .  A
O407        C410   1.279       .  A
O408        H418   0.990       .  S
O409        H422   0.990       .  S
C410        C561   1.478       .  S
N433        C437   1.356       .  A
N433        C434   1.358       .  A
N433        C545   1.448       .  S
C434        C537   1.473       .  S
C434        C435   1.385       .  A
C435        C436   1.370       .  A
C435        H438   1.083       .  S
C436        C437   1.381       .  A
C436        H439   1.082       .  S
C437        C569   1.482       .  S
N440        C444   1.358       .  A
N440        C441   1.360       .  A
N440        C585   1.444       .  S
C441        C513   1.479       .  S
C441        C442   1.384       .  A
C442        C443   1.365       .  A
C442        H445   1.083       .  S
C443        C444   1.380       .  A
C443        H446   1.083       .  S
C444        C593   1.474       .  S
Zr447       O448   2.439       .  S
Zr447       O449   2.425       .  S
Zr447       O450   2.436       .  S
Zr447       O453   2.419       .  S
Zr447       O455   2.372       .  S
Zr447       O456   2.380       .  S
Zr447       O457   2.404       .  S
Zr447       O458   2.408   1_455  S
O448        H504   0.991       .  S
O448        H512   0.990       .  S
O449        C469   1.283       .  A
O450        C471   1.284       .  A
O451       Zr461   2.423       .  S
O451        C470   1.284       .  A
O452       Zr460   2.424       .  S
O452        C471   1.284       .  A
O453        C470   1.283   1_455  A
O454       Zr462   2.440       .  S
O454        C469   1.285   1_565  A
O455       Zr460   2.382       .  S
O455       Zr462   2.372   1_545  S
O456       Zr461   2.383   1_455  S
O456       Zr462   2.373   1_545  S
O456        H491   0.979       .  S
O457       Zr460   2.388       .  S
O457       Zr477   2.398   1_455  S
O457        H494   0.971       .  S
O458       Zr461   2.386       .  S
O458       Zr477   2.404       .  S
Zr459       O484   2.438   1_545  S
Zr459       O478   2.435   1_455  S
Zr459       O486   2.452   1_445  S
Zr459       O474   2.460       .  S
Zr459       O465   2.410   1_545  S
Zr459       O466   2.408       .  S
Zr459       O467   2.384       .  S
Zr459       O468   2.389   1_455  S
Zr460       O479   2.435       .  S
Zr460       O472   2.434       .  S
Zr460       O473   2.414       .  S
Zr460       O466   2.395       .  S
Zr460       O467   2.384       .  S
Zr461       O463   2.436       .  S
Zr461       O485   2.435   1_545  S
Zr461       O487   2.411   1_545  S
Zr461       O465   2.395   1_645  S
Zr461       O468   2.388       .  S
Zr462       O488   2.436       .  S
Zr462       O489   2.434       .  S
Zr462       O464   2.437       .  S
Zr462       O465   2.404       .  S
Zr462       O466   2.397   1_565  S
O463        H500   0.990       .  S
O464        H495   0.990       .  S
O464        H509   0.991   1_565  S
O466        H492   0.967       .  S
O467       Zr477   2.367   1_455  S
O468       Zr477   2.372       .  S
O468        H493   0.967       .  S
C469        C617   1.482       .  S
C470        C665   1.479       .  S
C471        C529   1.475       .  S
O472        H508   0.990       .  S
O473        C475   1.283       .  A
O474        C475   1.290       .  A
C475        C625   1.490       .  S
O476       Zr477   2.435       .  S
O476        H505   0.990       .  S
Zr477       O480   2.437   1_655  S
Zr477       O481   2.438       .  S
Zr477       O482   2.443       .  S
O478        C483   1.285       .  A
O479        H496   0.990       .  S
O479        H511   0.990       .  S
O480        H497   0.990       .  S
O481        H501   0.990       .  S
O481        H510   0.989       .  S
O482        C483   1.287       .  A
C483        C673   1.490       .  S
O484        H503   0.991       .  S
O484        H507   0.990       .  S
O485        H499   0.990       .  S
O485        H506   0.991       .  S
O486        C490   1.290       .  A
O487        C490   1.281       .  A
O488        H498   0.990       .  S
O489        H502   0.990       .  S
C490        C521   1.484       .  S
C513        C514   1.401       .  A
C513        C518   1.407       .  A
C514        C515   1.404       .  A
C514        H523   1.083       .  S
C515        C516   1.409       .  A
C515        H524   1.083       .  S
C516        C522   1.405       .  A
C516        C517   1.410       .  A
C517        C519   1.403       .  A
C517        C518   1.398       .  A
C518        H525   1.085       .  S
C519        C520   1.396       .  A
C519        H526   1.084       .  S
C520        C521   1.404       .  A
C520        H527   1.083       .  S
C521        C522   1.414       .  A
C522        H528   1.084       .  S
C529        C530   1.403       .  A
C529        C534   1.408       .  A
C530        C531   1.391       .  A
C530        H539   1.084       .  S
C531        C532   1.399       .  A
C531        H540   1.084       .  S
C532        C538   1.399       .  A
C532        C533   1.415       .  A
C533        C535   1.406       .  A
C533        C534   1.410       .  A
C534        H541   1.084       .  S
C535        C536   1.403       .  A
C535        H542   1.083       .  S
C536        C537   1.402       .  A
C536        H543   1.083       .  S
C537        C538   1.402       .  A
C538        H544   1.085       .  S
C545        C546   1.405       .  A
C545        C550   1.412       .  A
C546        C547   1.400       .  A
C546        H555   1.081       .  S
C547        C548   1.405       .  A
C547        H556   1.084       .  S
C548        C554   1.403       .  A
C548        C549   1.410       .  A
C549        C551   1.403       .  A
C549        C550   1.400       .  A
C550        H557   1.083       .  S
C551        C552   1.397       .  A
C551        H558   1.084       .  S
C552        C553   1.406       .  A
C552        H559   1.083       .  S
C553        C554   1.412       .  A
C554        H560   1.084       .  S
C561        C562   1.410       .  A
C561        C566   1.404       .  A
C562        C563   1.389       .  A
C562        H571   1.083       .  S
C563        C564   1.395       .  A
C563        H572   1.084       .  S
C564        C570   1.398       .  A
C564        C565   1.415       .  A
C565        C567   1.401       .  A
C565        C566   1.407       .  A
C566        H573   1.084       .  S
C567        C568   1.399       .  A
C567        H574   1.083       .  S
C568        C569   1.407       .  A
C568        H575   1.082       .  S
C569        C570   1.401       .  A
C570        H576   1.084       .  S
C577        C578   1.409       .  A
C577        C582   1.414       .  A
C578        C579   1.397       .  A
C578        H587   1.083       .  S
C579        C580   1.400       .  A
C579        H588   1.084       .  S
C580        C586   1.406       .  A
C580        C581   1.413       .  A
C581        C583   1.408       .  A
C581        C582   1.414       .  A
C582        H589   1.084       .  S
C583        C584   1.406       .  A
C583        H590   1.083       .  S
C584        C585   1.403       .  A
C584        H591   1.082       .  S
C585        C586   1.407       .  A
C586        H592   1.084       .  S
C593        C594   1.404       .  A
C593        C598   1.402       .  A
C594        C595   1.399       .  A
C594        H603   1.083       .  S
C595        C596   1.403       .  A
C595        H604   1.083       .  S
C596        C602   1.407       .  A
C596        C597   1.415       .  A
C597        C599   1.399       .  A
C597        C598   1.403       .  A
C598        H605   1.085       .  S
C599        C600   1.395       .  A
C599        H606   1.084       .  S
C600        C601   1.407       .  A
C600        H607   1.083       .  S
C601        C602   1.407       .  A
C602        H608   1.084       .  S
C609        C610   1.402       .  A
C609        C614   1.403       .  A
C610        C611   1.400       .  A
C611        C612   1.405       .  A
C611        H620   1.083       .  S
C612        C618   1.407       .  A
C612        C613   1.414   1_565  A
C613        C615   1.401       .  A
C613        C614   1.402   1_545  A
C614        H621   1.084   1_565  S
C615        C616   1.396       .  A
C615        H622   1.084       .  S
C616        C617   1.407       .  A
C616        H623   1.083       .  S
C617        C618   1.408   1_545  A
C618        H624   1.084       .  S
C625        C626   1.410       .  A
C625        C630   1.411       .  A
C626        C627   1.393       .  A
C626        H635   1.083       .  S
C627        C628   1.398       .  A
C627        H636   1.084       .  S
C628        C634   1.404       .  A
C628        C629   1.414       .  A
C629        C631   1.405   1_545  A
C629        C630   1.413       .  A
C630        H637   1.084   1_545  S
C631        C632   1.404       .  A
C631        H638   1.083       .  S
C632        C633   1.405       .  A
C632        H639   1.083       .  S
C633        C634   1.404   1_565  A
C634        H640   1.085       .  S
C641        C642   1.404   1_556  A
C641        C646   1.400       .  A
C642        C643   1.407       .  A
C642        H651   1.083       .  S
C643        C644   1.409   1_554  A
C643        H652   1.083       .  S
C644        C650   1.414       .  A
C644        C645   1.413       .  A
C645        C647   1.396       .  A
C645        C646   1.399       .  A
C646        H653   1.085       .  S
C647        C648   1.390       .  A
C647        H654   1.084       .  S
C648        C649   1.409       .  A
C648        H655   1.083       .  S
C649        C650   1.414       .  A
C650        H656   1.084   1_556  S
C657        C658   1.402       .  A
C657        C662   1.400       .  A
C658        C659   1.399       .  A
C658        H667   1.083       .  S
C659        C660   1.405       .  A
C659        H668   1.084       .  S
C660        C666   1.402       .  A
C660        C661   1.413       .  A
C661        C663   1.399       .  A
C661        C662   1.396       .  A
C662        H669   1.085       .  S
C663        C664   1.392       .  A
C663        H670   1.084       .  S
C664        C665   1.406       .  A
C664        H671   1.083       .  S
C665        C666   1.409       .  A
C666        H672   1.084       .  S
C673        C674   1.409       .  A
C673        C678   1.408       .  A
C674        C675   1.404       .  A
C674        H683   1.083       .  S
C675        C676   1.405       .  A
C675        H684   1.084       .  S
C676        C682   1.409       .  A
C676        C677   1.412       .  A
C677        C679   1.401       .  A
C677        C678   1.404       .  A
C678        H685   1.084       .  S
C679        C680   1.396       .  A
C679        H686   1.084       .  S
C680        C681   1.404       .  A
C680        H687   1.081       .  S
C681        C682   1.411       .  A
C682        H688   1.083       .  S
C689        C694   1.404       .  A
C690        C691   1.395       .  A
C690        H699   1.083       .  S
C691        C692   1.400   1_556  A
C691        H700   1.084       .  S
C692        C698   1.404       .  A
C693        C695   1.401       .  A
C693        C694   1.406       .  A
C694        H701   1.084       .  S
C695        C696   1.396       .  A
C695        H702   1.084       .  S
C696        H703   1.084       .  S
C697        C698   1.401       .  A
C698        H704   1.085   1_554  S
