geometry optimzed in LAMMPS
_audit_creation_date              2020-12-01 
_audit_creation_method            'lammps2cif' 
_symmetry_space_group_name_H-M    'P1' 
_symmetry_Int_Tables_number       1 
_symmetry_cell_setting            triclinic 
loop_ 
_symmetry_equiv_pos_as_xyz 
  x,y,z 
_cell_length_a                    45.10075788 
_cell_length_b                    45.261071898968346 
_cell_length_c                    45.25430318836983 
_cell_angle_alpha                 89.94092706465354 
_cell_angle_beta                  90.01015632870146 
_cell_angle_gamma                 89.96675523222356 
loop_ 
_atom_site_label 
_atom_site_type_symbol 
_atom_site_fract_x 
_atom_site_fract_y 
_atom_site_fract_z 
_atom_site_charge 
N1          N  0.05916036  0.48457049  0.21229331    -0.07600
N2          N  0.07505867  0.47327225  0.19062060    -0.59700
N3          N  0.06257800  0.01592962  0.27872652    -0.07300
N4          N  0.08114448  0.02671839  0.29850332    -0.61800
N5          N  0.06199594  0.48693709  0.28008516    -0.06900
N6          N  0.08013823  0.47739876  0.30095523    -0.59700
N7          N  0.05950148  0.01359692  0.21112492    -0.06500
N8          N  0.07570058  0.02265278  0.18860561    -0.62200
C9          C  0.08500469  0.99727546  0.17582923     0.94600
C10         C  0.09207675  0.50247925  0.31214498     0.94400
N11         N  0.48449114  0.06547437  0.28054692    -0.07800
N12         N  0.47530389  0.08210593  0.30260088    -0.60300
N13         N  0.01104412  0.06388919  0.21168764    -0.05900
N14         N  0.02060804  0.08090127  0.19001251    -0.61500
N15         N  0.48194801  0.06444861  0.21290436    -0.07800
N16         N  0.47118222  0.08182024  0.19209553    -0.60500
N17         N  0.01361259  0.06523797  0.27942482    -0.05500
N18         N  0.02477694  0.08173701  0.30071170    -0.61600
Mn19       Mn  0.03735343  0.04034022  0.24512143     1.18400
C20         C  0.50065597  0.09210916  0.31510477     0.96700
C21         C  0.99547544  0.09191071  0.17783752     0.97300
N22         N  0.01107147  0.43886721  0.28339374    -0.07800
N23         N  0.02128209  0.42238721  0.30520036    -0.64100
N24         N  0.48005400  0.43715881  0.21592523    -0.06600
N25         N  0.46870855  0.42046990  0.19488679    -0.64800
N26         N  0.00916770  0.43643854  0.21504928    -0.07300
N27         N  0.01819444  0.41926067  0.19321396    -0.64400
N28         N  0.48193091  0.43930093  0.28384258    -0.06200
N29         N  0.47174542  0.42320387  0.30591878    -0.65100
Mn30       Mn  0.03603720  0.46092469  0.24781652     1.10700
C31         C  0.49649353  0.41295182  0.31927786     0.97900
C32         C  0.99267426  0.40932715  0.18087572     0.98000
N33         N  0.43229226  0.01603102  0.21533206    -0.07300
N34         N  0.41534244  0.02602898  0.19380073    -0.62700
N35         N  0.43385737  0.48852733  0.28372384    -0.06600
N36         N  0.41783225  0.47882060  0.30604412    -0.59400
N37         N  0.43416817  0.01745083  0.28324593    -0.08000
N38         N  0.41822187  0.02805516  0.30527955    -0.61400
N39         N  0.43186710  0.48706638  0.21593894    -0.06900
N40         N  0.41455255  0.47672513  0.19483812    -0.59500
Mn41       Mn  0.45753022  0.04157232  0.24804364     1.20200
Mn42       Mn  0.45629629  0.46236105  0.24983153     1.10100
Cl43       Cl  0.99683962  0.00129252  0.24769628    -0.87400
C44         C  0.40435328  0.00129013  0.18115700     0.94900
C45         C  0.40828211  0.50373696  0.31950829     0.94700
N46         N  0.48278285  0.21839951  0.06130144    -0.07600
N47         N  0.47309275  0.19665379  0.07811405    -0.59700
N48         N  0.00966376  0.28718403  0.06044960    -0.07300
N49         N  0.01907365  0.30893952  0.07744452    -0.61800
N50         N  0.48057529  0.28617099  0.06043132    -0.06900
N51         N  0.46959523  0.30719687  0.07745790    -0.59700
N52         N  0.01192280  0.21932109  0.06162293    -0.06500
N53         N  0.02258331  0.19820460  0.07870707    -0.62200
C54         C  0.99814942  0.18408642  0.08878502     0.94600
C55         C  0.49388763  0.32148871  0.08769271     0.94400
N56         N  0.05900256  0.28656498  0.48163139    -0.07800
N57         N  0.07400780  0.30904370  0.47068902    -0.60300
N58         N  0.06267593  0.22035267  0.01335650    -0.05900
N59         N  0.08254191  0.20190291  0.02434645    -0.61500
N60         N  0.06289433  0.21923893  0.48427596    -0.07800
N61         N  0.08296695  0.20015716  0.47501777    -0.60500
N62         N  0.05836169  0.28786003  0.01070266    -0.05500
N63         N  0.07290312  0.31126881  0.02006059    -0.61600
Mn64       Mn  0.03630618  0.25367402  0.03720908     1.18400
C65         C  0.08245067  0.32442371  0.49484150     0.96700
C66         C  0.09513871  0.18939255  0.50019724     0.97300
N67         N  0.43260742  0.28403802  0.01035957    -0.07800
N68         N  0.41559217  0.30562088  0.02001317    -0.64100
N69         N  0.43371138  0.21596495  0.48294411    -0.06600
N70         N  0.41633060  0.19484711  0.47288345    -0.64800
N71         N  0.43327599  0.21638111  0.01204016    -0.07300
N72         N  0.41545976  0.19559373  0.02228351    -0.64400
N73         N  0.43319351  0.28378679  0.48125452    -0.06200
N74         N  0.41659666  0.30528334  0.47051158    -0.65100
Mn75       Mn  0.45663436  0.25115736  0.03668834     1.10700
C76         C  0.40605067  0.31884666  0.49495675     0.97900
C77         C  0.40497577  0.18232550  0.49752115     0.98000
N78         N  0.01272317  0.21525393  0.43491596    -0.07300
N79         N  0.02303015  0.19367617  0.41818622    -0.62700
N80         N  0.48229910  0.28282088  0.43176067    -0.06600
N81         N  0.47214878  0.30353629  0.41379839    -0.59400
N82         N  0.01141539  0.28286318  0.43191275    -0.08000
N83         N  0.02170341  0.30357160  0.41419528    -0.62300
N84         N  0.48357743  0.21516576  0.43474562    -0.06900
N85         N  0.47354370  0.19354954  0.41808306    -0.59500
Mn86       Mn  0.03715115  0.25075423  0.45757181     1.20200
Mn87       Mn  0.45752987  0.24946508  0.45705599     1.10100
Cl88       Cl  0.49694377  0.25114065  0.49711008    -0.87400
C89         C  0.99825446  0.18016058  0.40791470     0.94900
C90         C  0.49706251  0.31624144  0.40288347     0.94700
N91         N  0.28032254  0.43511381  0.48174179    -0.07600
N92         N  0.30160164  0.41811265  0.47115682    -0.59700
N93         N  0.21259725  0.43552138  0.01115351    -0.07300
N94         N  0.18993702  0.42035876  0.02142075    -0.61800
N95         N  0.21200435  0.43623111  0.48213033    -0.06900
N96         N  0.18884302  0.42150531  0.47207656    -0.59700
N97         N  0.28057304  0.43479043  0.01075310    -0.06500
N98         N  0.30187124  0.41751003  0.02060777    -0.62200
C99         C  0.31470822  0.40721732  0.49573173     0.94600
C100        C  0.17515707  0.41177631  0.49690698     0.94400
N101        N  0.21276995  0.01139594  0.06198586    -0.07800
N102        N  0.19093483  0.02057496  0.07912980    -0.60300
N103        N  0.28137588  0.48238656  0.06104237    -0.05900
N104        N  0.30316722  0.47202779  0.07762838    -0.61500
N105        N  0.28101688  0.01139057  0.06168814    -0.07800
N106        N  0.30262272  0.02135264  0.07850207    -0.60500
N107        N  0.21340458  0.48236750  0.06129337    -0.05500
N108        N  0.19209724  0.47119517  0.07776942    -0.61600
Mn109      Mn  0.24710598  0.45804079  0.03668478     1.18400
C110        C  0.17828974  0.99519948  0.08888111     0.96700
C111        C  0.31641809  0.49668264  0.08823167     0.97300
N112        N  0.21291328  0.48603923  0.43390979    -0.07800
N113        N  0.19175815  0.47646356  0.41622376    -0.64100
N114        N  0.28156572  0.01393681  0.43532721    -0.06600
N115        N  0.30429024  0.02402236  0.42002370    -0.64800
N116        N  0.28095450  0.48496953  0.43446862    -0.07300
N117        N  0.30318746  0.47476824  0.41855241    -0.64400
N118        N  0.21336349  0.01508178  0.43435508    -0.06200
N119        N  0.19258502  0.02588483  0.41684559    -0.65100
Mn120      Mn  0.24645075  0.45985696  0.45731700     1.10700
C121        C  0.17901342  0.00153276  0.40598153     0.97900
C122        C  0.31774302  0.49935569  0.40978703     0.98000
N123        N  0.28134458  0.06184061  0.01423065    -0.07300
N124        N  0.30252108  0.07897491  0.02477765    -0.62700
N125        N  0.21398706  0.06347467  0.48476437    -0.06600
N126        N  0.19503331  0.08315089  0.47456977    -0.59400
N127        N  0.21347182  0.06307469  0.01385032    -0.08000
N128        N  0.19414043  0.08263995  0.02387294    -0.62300
N129        N  0.28166530  0.06218756  0.48515265    -0.06900
N130        N  0.30298003  0.07956354  0.47538494    -0.59500
Mn131      Mn  0.24696280  0.03751316  0.03871403     1.20200
Mn132      Mn  0.24760248  0.03923722  0.45924748     1.10100
Cl133      Cl  0.24692127  0.49871856  0.49801750    -0.87400
C134        C  0.31605695  0.08977477  0.50029163     0.94900
C135        C  0.18262011  0.09493936  0.49902253     0.94700
C136        C  0.36106525  0.38667133  0.47467090    -0.10600
C137        C  0.33811557  0.38472710  0.49550426     0.05600
C138        C  0.33765249  0.36104118  0.01568865    -0.04400
C139        C  0.36046332  0.34033255  0.01543192    -0.08800
C140        C  0.38346594  0.34218671  0.49470675     0.04700
C141        C  0.38371530  0.36554749  0.47410344    -0.03900
Br142      Br  0.41506679  0.37060000  0.44593436    -0.03600
H143        H  0.36156569  0.40481576  0.45909740     0.08600
H144        H  0.35966218  0.32210061  0.03085089     0.06600
Br145      Br  0.30513835  0.35386097  0.04218600    -0.04000
C146        C  0.37789460  0.14228490  0.02393612    -0.10600
C147        C  0.38262963  0.15827361  0.49764182     0.05600
C148        C  0.36534116  0.15125319  0.47253540    -0.04400
C149        C  0.34467974  0.12835029  0.47398033    -0.08800
C150        C  0.33974803  0.11252764  0.50022424     0.04700
C151        C  0.35664807  0.11979392  0.02556689    -0.03900
Br152      Br  0.35253218  0.10006730  0.06296572    -0.03600
H153        H  0.39083796  0.14739095  0.04354692     0.08600
H154        H  0.33154766  0.12359478  0.45442082     0.06600
Br155      Br  0.36637416  0.17323744  0.43617762    -0.04000
C156        C  0.11411082  0.35963984  0.52178699    -0.10600
C157        C  0.10281471  0.35000760  0.49459810     0.05600
C158        C  0.11280468  0.36383618  0.46841481    -0.04400
C159        C  0.13583746  0.38446009  0.46986213    -0.08800
C160        C  0.14864916  0.39247017  0.49702005     0.04700
C161        C  0.13644906  0.38077928  0.52335211    -0.03900
Br162      Br  0.14905628  0.39128630  0.06261944    -0.03600
H163        H  0.10625270  0.34990042  0.04234854     0.08600
H164        H  0.14404490  0.39394574  0.44945497     0.06600
Br165      Br  0.09598876  0.35648144  0.43008691    -0.04000
C166        C  0.15413113  0.13406761  0.52554501    -0.10600
C167        C  0.16115255  0.11996252  0.49877159     0.05600
C168        C  0.14796497  0.13072874  0.47245877    -0.04400
C169        C  0.12711165  0.15350930  0.47377997    -0.08800
C170        C  0.11909893  0.16674699  0.50064386     0.04700
C171        C  0.13390665  0.15757629  0.52666703    -0.03900
Br172      Br  0.12933281  0.17689633  0.06417155    -0.03600
H173        H  0.16482653  0.12706506  0.54590799     0.08600
H174        H  0.11677346  0.16070946  0.45330688     0.06600
Br175      Br  0.15648959  0.11581548  0.43360037    -0.04000
C176        C  0.35370333  0.52734020  0.37929270    -0.10600
C177        C  0.34335893  0.49980299  0.38927299     0.05600
C178        C  0.35693202  0.47387377  0.37830104    -0.04400
C179        C  0.37839063  0.47602919  0.35616312    -0.08800
C180        C  0.38752446  0.50354280  0.34494417     0.04700
C181        C  0.37568971  0.52950673  0.35766038    -0.03900
Br182      Br  0.38789502  0.56878750  0.34708229    -0.03600
H183        H  0.34429134  0.54755792  0.38799172     0.08600
H184        H  0.38763861  0.95574831  0.34737204     0.06600
Br185      Br  0.34803880  0.93461214  0.39216414    -0.04000
C186        C  0.11299853  0.48114533  0.35815918    -0.10600
C187        C  0.11426278  0.50307388  0.33624560     0.05600
C188        C  0.13667117  0.52483973  0.33792258    -0.04400
C189        C  0.15695330  0.02428881  0.36125695    -0.08800
C190        C  0.15578173  0.00222843  0.38300960     0.04700
C191        C  0.13326865  0.98067725  0.38154758    -0.03900
Br192      Br  0.12801884  0.95115721  0.41159177    -0.03600
H193        H  0.09571363  0.46449489  0.35742880     0.08600
H194        H  0.17441975  0.04075098  0.36186442     0.06600
Br195      Br  0.14246459  0.55445563  0.30805135    -0.04000
C196        C  0.12598212  0.47150748  0.15022392    -0.10600
C197        C  0.10668042  0.99578401  0.15145818     0.05600
C198        C  0.10974128  0.01861300  0.13044552    -0.04400
C199        C  0.13298652  0.01765521  0.11006640    -0.08800
C200        C  0.15314935  0.99405000  0.10974341     0.04700
C201        C  0.14911095  0.47040899  0.12976473    -0.03900
Br202      Br  0.17552205  0.43716956  0.13258405    -0.03600
H203        H  0.12390203  0.45369060  0.16623367     0.08600
H204        H  0.13528547  0.03560477  0.09422746     0.06600
Br205      Br  0.08230227  0.05094673  0.12744870    -0.04000
C206        C  0.37996466  0.47509253  0.13958216    -0.10600
C207        C  0.38286154  0.00090151  0.15644152     0.05600
C208        C  0.36462438  0.02537588  0.14970858    -0.04400
C209        C  0.34373127  0.02324699  0.12713898    -0.08800
C210        C  0.34030395  0.49731187  0.11067548     0.04700
C211        C  0.35924179  0.47315783  0.11659166    -0.03900
Br212      Br  0.35933974  0.43761705  0.09342347    -0.03600
H213        H  0.39416958  0.45634566  0.14396962     0.08600
H214        H  0.32956314  0.04207992  0.12297736     0.06600
Br215      Br  0.36533429  0.06213116  0.17091152    -0.04000
C216        C  0.02580899  0.14571777  0.37517766    -0.10600
C217        C  0.99840544  0.15596576  0.38581219     0.05600
C218        C  0.47210274  0.14369981  0.37397714    -0.04400
C219        C  0.47382636  0.12252931  0.35170028    -0.08800
C220        C  0.50114979  0.11306953  0.34027774     0.04700
C221        C  0.02750542  0.12463880  0.35265988    -0.03900
Br222      Br  0.06667186  0.11360365  0.34005953    -0.03600
H223        H  0.04634984  0.15462411  0.38404912     0.08600
H224        H  0.45323299  0.11378726  0.34280945     0.06600
Br225      Br  0.43269104  0.15467936  0.38588547    -0.04000
C226        C  0.02147549  0.37134054  0.34432473    -0.10600
C227        C  0.49659585  0.38985473  0.34243027     0.05600
C228        C  0.47194391  0.38408371  0.36083783    -0.04400
C229        C  0.47253924  0.35985601  0.38007987    -0.08800
C230        C  0.49733414  0.34115683  0.38167056     0.04700
C231        C  0.02191194  0.34697691  0.36320569    -0.03900
Br232      Br  0.05564971  0.32125589  0.35995580    -0.03600
H233        H  0.04036893  0.37496577  0.32997383     0.08600
H234        H  0.45351226  0.35572916  0.39403171     0.06600
Br235      Br  0.43719478  0.40864243  0.36178743    -0.04000
C236        C  0.01540778  0.38687129  0.13614733    -0.10600
C237        C  0.99144399  0.38805181  0.15593392     0.05600
C238        C  0.46744516  0.36835758  0.15174613    -0.04400
C239        C  0.46848800  0.34745970  0.12897322    -0.08800
C240        C  0.49293107  0.34563722  0.10984566     0.04700
C241        C  0.01615910  0.36628857  0.11306364    -0.03900
Br242      Br  0.04871480  0.36880965  0.08581238    -0.03600
H243        H  0.03364634  0.40227258  0.13846755     0.08600
H244        H  0.45031522  0.33196304  0.12674724     0.06600
Br245      Br  0.43324664  0.36722505  0.17705564    -0.04000
C246        C  0.47076108  0.14938035  0.12120978    -0.10600
C247        C  0.99815282  0.15930936  0.11029459     0.05600
C248        C  0.02432543  0.14553089  0.12060631    -0.04400
C249        C  0.02259931  0.12347291  0.14214682    -0.08800
C250        C  0.99525649  0.11423234  0.15378244     0.04700
C251        C  0.46899413  0.12710350  0.14252276    -0.03900
Br252      Br  0.42971621  0.11614376  0.15474722    -0.03600
H253        H  0.45032799  0.15921268  0.11335776     0.08600
H254        H  0.04302792  0.11358438  0.14993823     0.06600
Br255      Br  0.06332934  0.15478188  0.10646808    -0.04000
N256        N  0.05917331  0.48457320  0.71233102    -0.07600
N257        N  0.07509839  0.47329270  0.69066972    -0.59700
N258        N  0.06262033  0.01594035  0.77869968    -0.07300
N259        N  0.08120825  0.02671928  0.79846285    -0.61800
N260        N  0.06194147  0.48690152  0.78012704    -0.06900
N261        N  0.08006214  0.47736797  0.80101831    -0.59700
N262        N  0.05951189  0.01361096  0.71109556    -0.06500
N263        N  0.07570065  0.02266084  0.68856558    -0.62200
C264        C  0.08499281  0.99728071  0.67578493     0.94600
C265        C  0.09197374  0.50245401  0.81222417     0.94400
N266        N  0.48452826  0.06550107  0.78053426    -0.07800
N267        N  0.47533901  0.08213137  0.80258629    -0.60300
N268        N  0.01106796  0.06392403  0.71167931    -0.05900
N269        N  0.02062973  0.08093323  0.69000067    -0.61500
N270        N  0.48197634  0.06449006  0.71289492    -0.07800
N271        N  0.47121046  0.08186264  0.69208656    -0.60500
N272        N  0.01365270  0.06526238  0.77942137    -0.05500
N273        N  0.02481683  0.08175955  0.80071224    -0.61600
Mn274      Mn  0.03738328  0.04036219  0.74510504     1.18400
C275        C  0.50068755  0.09213231  0.81509612     0.96700
C276        C  0.99549637  0.09194604  0.67782911     0.97300
N277        N  0.01103831  0.43880711  0.78336403    -0.07800
N278        N  0.02123427  0.42232232  0.80517356    -0.64100
N279        N  0.48008887  0.43711579  0.71587672    -0.06600
N280        N  0.46876701  0.42042082  0.69483343    -0.64800
N281        N  0.00921565  0.43639966  0.71502266    -0.07300
N282        N  0.01826878  0.41921402  0.69320448    -0.64400
N283        N  0.48187620  0.43922697  0.78378895    -0.06200
N284        N  0.47166929  0.42310799  0.80583997    -0.65100
Mn285      Mn  0.03603364  0.46089141  0.74782184     1.10700
C286        C  0.49640531  0.41285435  0.81922083     0.97900
C287        C  0.99276124  0.40926848  0.68084968     0.98000
N288        N  0.43230431  0.01608631  0.71531787    -0.07300
N289        N  0.41534824  0.02608525  0.69379062    -0.62700
N290        N  0.43377813  0.48843087  0.78361723    -0.06600
N291        N  0.41772641  0.47871728  0.80591700    -0.59400
N292        N  0.43417250  0.01750486  0.78323248    -0.08000
N293        N  0.41821499  0.02811426  0.80525699    -0.61400
N294        N  0.43191148  0.48700321  0.71582554    -0.06900
N295        N  0.41466370  0.47666235  0.69467030    -0.59500
Mn296      Mn  0.45755355  0.04161674  0.74803131     1.20200
Mn297      Mn  0.45628151  0.46229286  0.74975216     1.10100
Cl298      Cl  0.99685407  0.00132620  0.74768808    -0.87400
C299        C  0.40435616  0.00134481  0.68115070     0.94900
C300        C  0.40816448  0.50363245  0.81937654     0.94700
N301        N  0.48281795  0.21838397  0.56122922    -0.07600
N302        N  0.47312445  0.19663416  0.57803465    -0.59700
N303        N  0.00973007  0.28715999  0.56039731    -0.07300
N304        N  0.01915474  0.30889699  0.57740629    -0.61800
N305        N  0.48062185  0.28615752  0.56039079    -0.06900
N306        N  0.46965107  0.30717858  0.57742860    -0.59700
N307        N  0.01195444  0.21930246  0.56156036    -0.06500
N308        N  0.02260847  0.19818085  0.57864120    -0.62200
C309        C  0.99817134  0.18406988  0.58872059     0.94600
C310        C  0.49395086  0.32145588  0.58766736     0.94400
N311        N  0.05894474  0.28660452  0.98168697    -0.07800
N312        N  0.07394882  0.30909162  0.97075542    -0.60300
N313        N  0.06270632  0.22032428  0.51330372    -0.05900
N314        N  0.08258182  0.20188871  0.52429751    -0.61500
N315        N  0.06286307  0.21926943  0.98432831    -0.07800
N316        N  0.08292292  0.20017570  0.97506668    -0.60500
N317        N  0.05842667  0.28782703  0.51064644    -0.05500
N318        N  0.07297793  0.31123477  0.51999363    -0.61600
Mn319      Mn  0.03635318  0.25364896  0.53715340     1.18400
C320        C  0.08237882  0.32446878  0.99491681     0.96700
C321        C  0.09509078  0.18940075  0.00024321     0.97300
N322        N  0.43265081  0.28405218  0.51031760    -0.07800
N323        N  0.41562397  0.30562125  0.51998148    -0.64100
N324        N  0.43368373  0.21594019  0.98301134    -0.06600
N325        N  0.41631713  0.19481065  0.97295445    -0.64800
N326        N  0.43330608  0.21639827  0.51197312    -0.07300
N327        N  0.41547960  0.19561837  0.52221295    -0.64400
N328        N  0.43315082  0.28376041  0.98129687    -0.06200
N329        N  0.41656632  0.30526073  0.97054378    -0.65100
Mn330      Mn  0.45667430  0.25115851  0.53663262     1.10700
C331        C  0.40602670  0.31884035  0.99498178     0.97900
C332        C  0.40496672  0.18228939  0.99759289     0.98000
N333        N  0.01270089  0.21525868  0.93495813    -0.07300
N334        N  0.02301505  0.19370226  0.91820402    -0.62700
N335        N  0.48224321  0.28278505  0.93179629    -0.06600
N336        N  0.47208536  0.30347589  0.91381013    -0.59400
N337        N  0.01136379  0.28286242  0.93194913    -0.08000
N338        N  0.02164400  0.30355200  0.91420535    -0.62300
N339        N  0.48352899  0.21513491  0.93479631    -0.06900
N340        N  0.47350069  0.19353128  0.91811301    -0.59500
Mn341      Mn  0.03711186  0.25077477  0.95762064     1.20200
Mn342      Mn  0.45748549  0.24943484  0.95710838     1.10100
Cl343      Cl  0.49690139  0.25113109  0.99716196    -0.87400
C344        C  0.99824399  0.18018381  0.90792338     0.94900
C345        C  0.49699369  0.31617816  0.90287997     0.94700
N346        N  0.28030857  0.43511478  0.98172635    -0.07600
N347        N  0.30158152  0.41810791  0.97113749    -0.59700
N348        N  0.21258923  0.43552315  0.51113952    -0.07300
N349        N  0.18992067  0.42035943  0.52138621    -0.61800
N350        N  0.21198753  0.43622365  0.98214482    -0.06900
N351        N  0.18881933  0.42149140  0.97211275    -0.59700
N352        N  0.28056008  0.43476259  0.51076775    -0.06500
N353        N  0.30184698  0.41746953  0.52062680    -0.62200
C354        C  0.31471155  0.40723711  0.99571091     0.94600
C355        C  0.17515588  0.41176301  0.99695646     0.94400
N356        N  0.21280185  0.01140502  0.56197174    -0.07800
N357        N  0.19096650  0.02058692  0.57911543    -0.60300
N358        N  0.28136784  0.48234453  0.56103074    -0.05900
N359        N  0.30319433  0.47196825  0.57755832    -0.61500
N360        N  0.28104654  0.01138777  0.56165805    -0.07800
N361        N  0.30264313  0.02135249  0.57848057    -0.60500
N362        N  0.21340457  0.48236102  0.56131218    -0.05500
N363        N  0.19211902  0.47120031  0.57782533    -0.61600
Mn364      Mn  0.24709122  0.45802219  0.53668849     1.18400
C365        C  0.17831737  0.99521284  0.58886805     0.96700
C366        C  0.31648945  0.49661335  0.58812413     0.97300
N367        N  0.21287380  0.48602813  0.93390582    -0.07800
N368        N  0.19169549  0.47645948  0.91624304    -0.64100
N369        N  0.28156977  0.01395683  0.93536063    -0.06600
N370        N  0.30429079  0.02405500  0.92005864    -0.64800
N371        N  0.28091401  0.48493678  0.93442898    -0.07300
N372        N  0.30312568  0.47472214  0.91849202    -0.64400
N373        N  0.21336399  0.01507961  0.93437044    -0.06200
N374        N  0.19258688  0.02587859  0.91685704    -0.65100
Mn375      Mn  0.24641999  0.45984277  0.95730626     1.10700
C376        C  0.17902773  0.00152387  0.90598382     0.97900
C377        C  0.31768522  0.49930168  0.90971293     0.98000
N378        N  0.28138681  0.06183380  0.51419034    -0.07300
N379        N  0.30256075  0.07897771  0.52472831    -0.62700
N380        N  0.21394718  0.06347032  0.98478533    -0.06600
N381        N  0.19497763  0.08313381  0.97459105    -0.59400
N382        N  0.21351786  0.06308552  0.51382927    -0.08000
N383        N  0.19420702  0.08267036  0.52385199    -0.62300
N384        N  0.28163104  0.06219757  0.98519354    -0.06900
N385        N  0.30295481  0.07956574  0.97543409    -0.59500
Mn386      Mn  0.24700037  0.03751499  0.53868740     1.20200
Mn387      Mn  0.24758474  0.03924393  0.95927475     1.10100
Cl388      Cl  0.24691664  0.49871578  0.99799985    -0.87400
C389        C  0.31602715  0.08976919  0.00034606     0.94900
C390        C  0.18254637  0.09490524  0.99904465     0.94700
C391        C  0.36104344  0.38664901  0.97463228    -0.10600
C392        C  0.33811085  0.38473927  0.99548752     0.05600
C393        C  0.33764515  0.36099950  0.51567044    -0.04400
C394        C  0.36045972  0.34029359  0.51539984    -0.08800
C395        C  0.38345317  0.34219073  0.99471843     0.04700
C396        C  0.38368998  0.36552056  0.97407879    -0.03900
Br397      Br  0.41501900  0.37052650  0.94587576    -0.03600
H398        H  0.36153456  0.40477049  0.95903282     0.08600
H399        H  0.35965080  0.32203857  0.53079138     0.06600
Br400      Br  0.30511042  0.35377904  0.54213137    -0.04000
C401        C  0.37791742  0.14231075  0.52386380    -0.10600
C402        C  0.38262401  0.15823670  0.99771060     0.05600
C403        C  0.36535084  0.15120895  0.97259548    -0.04400
C404        C  0.34468152  0.12831569  0.97403868    -0.08800
C405        C  0.33972813  0.11250826  0.00028646     0.04700
C406        C  0.35667947  0.11981159  0.52549761    -0.03900
Br407      Br  0.35259510  0.10006733  0.56289032    -0.03600
H408        H  0.39087073  0.14741181  0.54346932     0.08600
H409        H  0.33156040  0.12355612  0.95447276     0.06600
Br410      Br  0.36641487  0.17316574  0.93622149    -0.04000
C411        C  0.11419364  0.35953848  0.02187412    -0.10600
C412        C  0.10276364  0.35003762  0.99469430     0.05600
C413        C  0.11264475  0.36397370  0.96852894    -0.04400
C414        C  0.13570339  0.38457324  0.96996240    -0.08800
C415        C  0.14864360  0.39245777  0.99709838     0.04700
C416        C  0.13655654  0.38065311  0.02343282    -0.03900
Br417      Br  0.14874234  0.39162779  0.56254394    -0.03600
H418        H  0.10607932  0.35009136  0.54226817     0.08600
H419        H  0.14382248  0.39414642  0.94956150     0.06600
Br420      Br  0.09561270  0.35681442  0.93025869    -0.04000
C421        C  0.15406685  0.13404183  0.02557131    -0.10600
C422        C  0.16106444  0.11992045  0.99879952     0.05600
C423        C  0.14784828  0.13067022  0.97249413    -0.04400
C424        C  0.12700946  0.15346630  0.97381992    -0.08800
C425        C  0.11903102  0.16672996  0.00068248     0.04700
C426        C  0.13385227  0.15756020  0.02669811    -0.03900
Br427      Br  0.12935226  0.17689420  0.56414602    -0.03600
H428        H  0.16477801  0.12704802  0.04592872     0.08600
H429        H  0.11665411  0.16065716  0.95335233     0.06600
Br430      Br  0.15630786  0.11570300  0.93364285    -0.04000
C431        C  0.35358749  0.52726522  0.87914263    -0.10600
C432        C  0.34327930  0.49973508  0.88917456     0.05600
C433        C  0.35686912  0.47380050  0.87823557    -0.04400
C434        C  0.37830602  0.47594042  0.85607396    -0.08800
C435        C  0.38740825  0.50344647  0.84481118     0.04700
C436        C  0.37555814  0.52941900  0.85749663    -0.03900
Br437      Br  0.38772047  0.56869939  0.84686390    -0.03600
H438        H  0.34416193  0.54748833  0.88781556     0.08600
H439        H  0.38768604  0.95581942  0.84741429     0.06600
Br440      Br  0.34818170  0.93468883  0.89229870    -0.04000
C441        C  0.11286707  0.48117716  0.85827546    -0.10600
C442        C  0.11415534  0.50306340  0.83632289     0.05600
C443        C  0.13659364  0.52480140  0.83794855    -0.04400
C444        C  0.15698464  0.02428598  0.86125419    -0.08800
C445        C  0.15581037  0.00221593  0.88299701     0.04700
C446        C  0.13331442  0.98064892  0.88150643    -0.03900
Br447      Br  0.12806917  0.95110290  0.91152748    -0.03600
H448        H  0.09555791  0.46455029  0.85758103     0.08600
H449        H  0.17444142  0.04075792  0.86188093     0.06600
Br450      Br  0.14242099  0.55434076  0.80800707    -0.04000
C451        C  0.12602177  0.47153400  0.65029676    -0.10600
C452        C  0.10666917  0.99578461  0.65141085     0.05600
C453        C  0.10974057  0.01861627  0.63040167    -0.04400
C454        C  0.13299896  0.01766454  0.61003532    -0.08800
C455        C  0.15316611  0.99406264  0.60972089     0.04700
C456        C  0.14915274  0.47042750  0.62984153    -0.03900
Br457      Br  0.17550814  0.43714117  0.63261738    -0.03600
H458        H  0.12390942  0.45369633  0.66627949     0.08600
H459        H  0.13530509  0.03561631  0.59420031     0.06600
Br460      Br  0.08230042  0.05094773  0.62739470    -0.04000
C461        C  0.38004921  0.47498258  0.63944392    -0.10600
C462        C  0.38286164  0.00094673  0.65643944     0.05600
C463        C  0.36460409  0.02540673  0.64971256    -0.04400
C464        C  0.34370674  0.02326033  0.62714855    -0.08800
C465        C  0.34043200  0.49723430  0.61050400     0.04700
C466        C  0.35929516  0.47303585  0.61648004    -0.03900
Br467      Br  0.35922662  0.43740154  0.59345183    -0.03600
H468        H  0.39418540  0.45619910  0.64389196     0.08600
H469        H  0.32952263  0.04208239  0.62298971     0.06600
Br470      Br  0.36530082  0.06216518  0.67091014    -0.04000
C471        C  0.02581078  0.14569172  0.87524236    -0.10600
C472        C  0.99840123  0.15600709  0.88579891     0.05600
C473        C  0.47208702  0.14376474  0.87390569    -0.04400
C474        C  0.47383037  0.12259276  0.85163310    -0.08800
C475        C  0.50116492  0.11309729  0.84026538     0.04700
C476        C  0.02752109  0.12461043  0.85272563    -0.03900
Br477      Br  0.06669348  0.11347929  0.84023096    -0.03600
H478        H  0.04634747  0.15454256  0.88417929     0.08600
H479        H  0.45324292  0.11388183  0.84269838     0.06600
Br480      Br  0.43266286  0.15482027  0.88570289    -0.04000
C481        C  0.02140481  0.37124800  0.84426698    -0.10600
C482        C  0.49649333  0.38974688  0.84236509     0.05600
C483        C  0.47182346  0.38394690  0.86074017    -0.04400
C484        C  0.47242939  0.35973107  0.87999778    -0.08800
C485        C  0.49725201  0.34107148  0.88163778     0.04700
C486        C  0.02184248  0.34689660  0.86316427    -0.03900
Br487      Br  0.05559361  0.32118793  0.85994982    -0.03600
H488        H  0.04029905  0.37486732  0.82991585     0.08600
H489        H  0.45338942  0.35558560  0.89392649     0.06600
Br490      Br  0.43703500  0.40845215  0.86163074    -0.04000
C491        C  0.01551743  0.38679974  0.63614542    -0.10600
C492        C  0.99154985  0.38797952  0.65592558     0.05600
C493        C  0.46753793  0.36828989  0.65174618    -0.04400
C494        C  0.46857783  0.34739482  0.62897403    -0.08800
C495        C  0.49300871  0.34558868  0.60983226     0.04700
C496        C  0.01626617  0.36622369  0.61305767    -0.03900
Br497      Br  0.04881179  0.36875962  0.58579708    -0.03600
H498        H  0.03375391  0.40220307  0.63846694     0.08600
H499        H  0.45040851  0.33189357  0.62675346     0.06600
Br500      Br  0.43334031  0.36715240  0.67705775    -0.04000
C501        C  0.47078666  0.14936755  0.62114053    -0.10600
C502        C  0.99817169  0.15930046  0.61023955     0.05600
C503        C  0.02434722  0.14555805  0.62059253    -0.04400
C504        C  0.02262039  0.12351442  0.64214662    -0.08800
C505        C  0.99527571  0.11425606  0.65376241     0.04700
C506        C  0.46901958  0.12711670  0.64248172    -0.03900
Br507      Br  0.42974168  0.11618477  0.65473283    -0.03600
H508        H  0.45035364  0.15918881  0.61327428     0.08600
H509        H  0.04305121  0.11365414  0.64996765     0.06600
Br510      Br  0.06336139  0.15484974  0.60650816    -0.04000
N511        N  0.05916101  0.98456644  0.21232600    -0.07600
N512        N  0.07508470  0.97328267  0.19066532    -0.59700
N513        N  0.06264214  0.51595839  0.27868760    -0.07300
N514        N  0.08123753  0.52673875  0.29844442    -0.61800
N515        N  0.06194514  0.98690838  0.28011920    -0.06900
N516        N  0.08007040  0.97737691  0.30100714    -0.59700
N517        N  0.05951097  0.51360002  0.21108172    -0.06500
N518        N  0.07569029  0.52264101  0.18854133    -0.62200
C519        C  0.08497244  0.49725548  0.17576401     0.94600
C520        C  0.09198178  0.00246409  0.31221054     0.94400
N521        N  0.48454733  0.56554986  0.28052522    -0.07800
N522        N  0.47537797  0.58221685  0.30256070    -0.60300
N523        N  0.01105910  0.56388457  0.21165128    -0.05900
N524        N  0.02061807  0.58082745  0.18992216    -0.61500
N525        N  0.48196076  0.56446953  0.21289030    -0.07800
N526        N  0.47119034  0.58180934  0.19205693    -0.60500
N527        N  0.01367552  0.56530467  0.27938614    -0.05500
N528        N  0.02485894  0.58183127  0.30064087    -0.61600
Mn529      Mn  0.03739121  0.54036507  0.24508584     1.18400
C530        C  0.50074088  0.59222660  0.31503524     0.96700
C531        C  0.99548506  0.59181912  0.17773411     0.97300
N532        N  0.01105047  0.93881465  0.28337423    -0.07800
N533        N  0.02125663  0.92232516  0.30517510    -0.64100
N534        N  0.48007697  0.93711813  0.21590022    -0.06600
N535        N  0.46874423  0.92042251  0.19486237    -0.64800
N536        N  0.00919152  0.93639833  0.21503682    -0.07300
N537        N  0.01823387  0.91920935  0.19321701    -0.64400
N538        N  0.48190824  0.93924200  0.28380967    -0.06200
N539        N  0.47171432  0.92312291  0.30586532    -0.65100
Mn540      Mn  0.03602790  0.96089345  0.24782351     1.10700
C541        C  0.49645779  0.91286891  0.31923118     0.97900
C542        C  0.99272118  0.90926163  0.18087362     0.98000
N543        N  0.43227375  0.51609098  0.21539148    -0.07300
N544        N  0.41528543  0.52609008  0.19389008    -0.62700
N545        N  0.43381688  0.98844908  0.28366622    -0.06600
N546        N  0.41778646  0.97873579  0.30598039    -0.59400
N547        N  0.43421318  0.51752974  0.28329918    -0.08000
N548        N  0.41827357  0.52813981  0.30533681    -0.61400
N549        N  0.43188829  0.98700629  0.21587440    -0.06900
N550        N  0.41461377  0.97666482  0.19474010    -0.59500
Mn551      Mn  0.45755615  0.54163179  0.24806437     1.20200
Mn552      Mn  0.45629021  0.96230224  0.24978745     1.10100
Cl553      Cl  0.99686127  0.50134129  0.24770737    -0.87400
C554        C  0.40427044  0.50135018  0.18127131     0.94900
C555        C  0.40822969  0.00365011  0.31944401     0.94700
N556        N  0.48278393  0.71836346  0.06126225    -0.07600
N557        N  0.47309210  0.69661000  0.07806443    -0.59700
N558        N  0.00970397  0.78712499  0.06044037    -0.07300
N559        N  0.01912563  0.80886499  0.07744754    -0.61800
N560        N  0.48060023  0.78613496  0.06042656    -0.06900
N561        N  0.46962947  0.80716075  0.07745811    -0.59700
N562        N  0.01193062  0.71926818  0.06158032    -0.06500
N563        N  0.02258878  0.69813845  0.07864672    -0.62200
C564        C  0.99815564  0.68402212  0.08872609     0.94600
C565        C  0.49392820  0.82144222  0.08769203     0.94400
N566        N  0.05896542  0.78662664  0.48166240    -0.07800
N567        N  0.07394493  0.80912691  0.47072514    -0.60300
N568        N  0.06267298  0.72029731  0.01331296    -0.05900
N569        N  0.08253336  0.70184169  0.02429955    -0.61500
N570        N  0.06291615  0.71929560  0.48432705    -0.07800
N571        N  0.08299626  0.70022005  0.47507226    -0.60500
N572        N  0.05840460  0.78780423  0.01068823    -0.05500
N573        N  0.07296167  0.81120486  0.02004602    -0.61600
Mn574      Mn  0.03632793  0.75361923  0.03718167     1.18400
C575        C  0.08235495  0.82451873  0.49488354     0.96700
C576        C  0.09516979  0.68946006  0.50025251     0.97300
N577        N  0.43262430  0.78404647  0.01036922    -0.07800
N578        N  0.41561507  0.80562603  0.02004127    -0.64100
N579        N  0.43371469  0.71594326  0.48297458    -0.06600
N580        N  0.41631662  0.69483430  0.47292576    -0.64800
N581        N  0.43327576  0.71638630  0.01200261    -0.07300
N582        N  0.41547515  0.69558001  0.02223420    -0.64400
N583        N  0.43317131  0.78375841  0.48124122    -0.06200
N584        N  0.41656451  0.80523826  0.47048004    -0.65100
Mn585      Mn  0.45664429  0.75114190  0.03667065     1.10700
C586        C  0.40600851  0.81881510  0.49491299     0.97900
C587        C  0.40494736  0.68234183  0.49757133     0.98000
N588        N  0.01275612  0.71525328  0.43497062    -0.07300
N589        N  0.02309473  0.69367171  0.41826866    -0.62700
N590        N  0.48228317  0.78277878  0.43175593    -0.06600
N591        N  0.47212591  0.80346121  0.41376088    -0.59400
N592        N  0.01140112  0.78285017  0.43192249    -0.08000
N593        N  0.02168141  0.80353664  0.41417564    -0.62300
N594        N  0.48359208  0.71513506  0.43477150    -0.06900
N595        N  0.47358478  0.69350430  0.41810870    -0.59500
Mn596      Mn  0.03715253  0.75078267  0.45761022     1.20200
Mn597      Mn  0.45752476  0.74943237  0.45706645     1.10100
Cl598      Cl  0.49693284  0.75114740  0.49713171    -0.87400
C599        C  0.99834073  0.68012319  0.40799209     0.94900
C600        C  0.49703528  0.81616456  0.40283577     0.94700
N601        N  0.28029771  0.93510929  0.48170649    -0.07600
N602        N  0.30156493  0.91810011  0.47111144    -0.59700
N603        N  0.21257835  0.93552577  0.01114422    -0.07300
N604        N  0.18991424  0.92036381  0.02140297    -0.61800
N605        N  0.21198032  0.93623370  0.48212255    -0.06900
N606        N  0.18880895  0.92151108  0.47208440    -0.59700
N607        N  0.28055135  0.93477641  0.01076588    -0.06500
N608        N  0.30184409  0.91749451  0.02063021    -0.62200
C609        C  0.31468812  0.90721164  0.49567997     0.94600
C610        C  0.17513770  0.91178666  0.49692485     0.94400
N611        N  0.21278102  0.51140089  0.06197303    -0.07800
N612        N  0.19092436  0.52057385  0.07909478    -0.60300
N613        N  0.28135318  0.98236391  0.06103863    -0.05900
N614        N  0.30316827  0.97199389  0.07758588    -0.61500
N615        N  0.28102952  0.51141330  0.06168900    -0.07800
N616        N  0.30260316  0.52138663  0.07853832    -0.60500
N617        N  0.21338339  0.98236260  0.06130118    -0.05500
N618        N  0.19208862  0.97119609  0.07779803    -0.61600
Mn619      Mn  0.24708060  0.95803213  0.03668661     1.18400
C620        C  0.17827865  0.49519378  0.08883705     0.96700
C621        C  0.31644458  0.99664184  0.08817070     0.97300
N622        N  0.21287962  0.98603942  0.43389420    -0.07800
N623        N  0.19170674  0.97647047  0.41622569    -0.64100
N624        N  0.28158583  0.51396394  0.43537347    -0.06600
N625        N  0.30431355  0.52406307  0.42008238    -0.64800
N626        N  0.28091749  0.98494309  0.43442361    -0.07300
N627        N  0.30313587  0.97472760  0.41849714    -0.64400
N628        N  0.21337981  0.51508171  0.43438034    -0.06200
N629        N  0.19260712  0.52587761  0.41685971    -0.65100
Mn630      Mn  0.24641851  0.95984959  0.45729191     1.10700
C631        C  0.17905693  0.50152118  0.40597807     0.97900
C632        C  0.31769996  0.99930630  0.40972385     0.98000
N633        N  0.28136638  0.56183370  0.01419972    -0.07300
N634        N  0.30255442  0.57895969  0.02473794    -0.62700
N635        N  0.21397299  0.56348250  0.48480205    -0.06600
N636        N  0.19503380  0.58317611  0.47461136    -0.59400
N637        N  0.21349219  0.56306769  0.01382615    -0.08000
N638        N  0.19415483  0.58262792  0.02384435    -0.62300
N639        N  0.28164787  0.56220781  0.48519703    -0.06900
N640        N  0.30294640  0.57960539  0.47543429    -0.59500
Mn641      Mn  0.24697917  0.53751849  0.03869671     1.20200
Mn642      Mn  0.24760095  0.53924881  0.45928565     1.10100
Cl643      Cl  0.24691981  0.99871702  0.49798862    -0.87400
C644        C  0.31601277  0.58981991  0.50034440     0.94900
C645        C  0.18262906  0.59497206  0.49906597     0.94700
C646        C  0.36100732  0.88661968  0.47457967    -0.10600
C647        C  0.33808172  0.88470757  0.49544218     0.05600
C648        C  0.33764860  0.86103232  0.01570845    -0.04400
C649        C  0.36046833  0.84033209  0.01545808    -0.08800
C650        C  0.38341827  0.84215141  0.49464339     0.04700
C651        C  0.38364781  0.86548543  0.47400800    -0.03900
Br652      Br  0.41495485  0.87048789  0.44578103    -0.03600
H653        H  0.36149655  0.90474682  0.45898603     0.08600
H654        H  0.35965509  0.82208208  0.03085524     0.06600
Br655      Br  0.30510923  0.85381933  0.04216593    -0.04000
C656        C  0.37790475  0.64229136  0.02388797    -0.10600
C657        C  0.38257334  0.65832078  0.49770407     0.05600
C658        C  0.36522204  0.65136799  0.47262340    -0.04400
C659        C  0.34456027  0.62846642  0.47406274    -0.08800
C660        C  0.33968402  0.61258909  0.50028375     0.04700
C661        C  0.35666584  0.61979366  0.02552263    -0.03900
Br662      Br  0.35251195  0.60012056  0.06294537    -0.03600
H663        H  0.39081289  0.64743456  0.04351201     0.08600
H664        H  0.33138419  0.62375523  0.45452158     0.06600
Br665      Br  0.36616032  0.67346065  0.43632803    -0.04000
C666        C  0.11414319  0.85960664  0.52183798    -0.10600
C667        C  0.10272239  0.85009836  0.49465795     0.05600
C668        C  0.11260847  0.86402720  0.46849112    -0.04400
C669        C  0.13567800  0.88461441  0.46992382    -0.08800
C670        C  0.14861509  0.89249863  0.49706172     0.04700
C671        C  0.13651201  0.88071248  0.52339655    -0.03900
Br672      Br  0.14888951  0.89146572  0.06258978    -0.03600
H673        H  0.10617391  0.84997740  0.04232591     0.08600
H674        H  0.14380701  0.89417810  0.44952245     0.06600
Br675      Br  0.09556300  0.85687807  0.43022439    -0.04000
C676        C  0.15415998  0.63412071  0.52559355    -0.10600
C677        C  0.16117573  0.62001242  0.49881899     0.05600
C678        C  0.14799169  0.63078869  0.47250807    -0.04400
C679        C  0.12714455  0.65357613  0.47383210    -0.08800
C680        C  0.11913221  0.66681255  0.50069741     0.04700
C681        C  0.13394042  0.65763621  0.52671826    -0.03900
Br682      Br  0.12926423  0.67679605  0.06414769    -0.03600
H683        H  0.16485378  0.62711313  0.54595558     0.08600
H684        H  0.11680872  0.66078107  0.45335952     0.06600
Br685      Br  0.15651070  0.61587755  0.43364791    -0.04000
C686        C  0.35365849  0.02727035  0.37921907    -0.10600
C687        C  0.34330883  0.99973820  0.38920440     0.05600
C688        C  0.35687339  0.97380230  0.37823735    -0.04400
C689        C  0.37833225  0.97594792  0.35609856    -0.08800
C690        C  0.38747204  0.00345824  0.34487681     0.04700
C691        C  0.37564454  0.02942751  0.35758851    -0.03900
Br692      Br  0.38786015  0.06870601  0.34701109    -0.03600
H693        H  0.34425267  0.04749241  0.38791466     0.08600
H694        H  0.38770066  0.45583268  0.34743365     0.06600
Br695      Br  0.34810767  0.43467749  0.39221669    -0.04000
C696        C  0.11288396  0.98118345  0.35825441    -0.10600
C697        C  0.11416676  0.00307388  0.33630590     0.05600
C698        C  0.13660152  0.02481553  0.33793371    -0.04400
C699        C  0.15700646  0.52430356  0.36126089    -0.08800
C700        C  0.15584673  0.50221155  0.38298247     0.04700
C701        C  0.13336583  0.48063038  0.38146820    -0.03900
Br702      Br  0.12812902  0.45105719  0.41146462    -0.03600
H703        H  0.09557635  0.96455501  0.35755963     0.08600
H704        H  0.17444959  0.54078891  0.36190672     0.06600
Br705      Br  0.14241037  0.05437339  0.30800704    -0.04000
C706        C  0.12601077  0.97152884  0.15028685    -0.10600
C707        C  0.10663390  0.49574929  0.15137845     0.05600
C708        C  0.10967635  0.51856289  0.13034596    -0.04400
C709        C  0.13292879  0.51761269  0.10997264    -0.08800
C710        C  0.15311937  0.49403055  0.10967821     0.04700
C711        C  0.14912946  0.97042088  0.12981796    -0.03900
Br712      Br  0.17550166  0.93714779  0.13259670    -0.03600
H713        H  0.12391760  0.95370128  0.16628347     0.08600
H714        H  0.13521644  0.53555285  0.09412172     0.06600
Br715      Br  0.08220715  0.55086856  0.12732479    -0.04000
C716        C  0.38001261  0.97501764  0.13948730    -0.10600
C717        C  0.38276311  0.50095651  0.15657199     0.05600
C718        C  0.36448085  0.52540694  0.14987498    -0.04400
C719        C  0.34360218  0.52327578  0.12728905    -0.08800
C720        C  0.34036795  0.99726175  0.11057478     0.04700
C721        C  0.35926922  0.97308318  0.11651248    -0.03900
Br722      Br  0.35927443  0.93749934  0.09340790    -0.03600
H723        H  0.39418297  0.95625106  0.14389921     0.08600
H724        H  0.32939979  0.54208810  0.12314724     0.06600
Br725      Br  0.36512169  0.56212296  0.17114941    -0.04000
C726        C  0.02593496  0.64617597  0.37478991    -0.10600
C727        C  0.99853865  0.65593706  0.38588462     0.05600
C728        C  0.47223635  0.64324594  0.37444127    -0.04400
C729        C  0.47395927  0.62217218  0.35206823    -0.08800
C730        C  0.50125998  0.61315481  0.34023446     0.04700
C731        C  0.02762665  0.62515957  0.35221832    -0.03900
Br732      Br  0.06677225  0.61482096  0.33898238    -0.03600
H733        H  0.04646224  0.65543019  0.38332875     0.08600
H734        H  0.45337958  0.61310585  0.34347688     0.06600
Br735      Br  0.43286410  0.65341167  0.38716728    -0.04000
C736        C  0.02144045  0.87124047  0.34425253    -0.10600
C737        C  0.49655361  0.88975566  0.34236498     0.05600
C738        C  0.47189234  0.88396775  0.36075393    -0.04400
C739        C  0.47248982  0.85973994  0.37999329    -0.08800
C740        C  0.49729624  0.84105862  0.38160122     0.04700
C741        C  0.02187564  0.84687577  0.36313206    -0.03900
Br742      Br  0.05561348  0.82115252  0.35989180    -0.03600
H743        H  0.04033391  0.87486741  0.32990243     0.08600
H744        H  0.45345806  0.85560389  0.39393571     0.06600
Br745      Br  0.43712850  0.90850647  0.36168861    -0.04000
C746        C  0.01549166  0.88676399  0.13619173    -0.10600
C747        C  0.99150358  0.88797411  0.15594560     0.05600
C748        C  0.46748625  0.86831922  0.15173289    -0.04400
C749        C  0.46852968  0.84742110  0.12896228    -0.08800
C750        C  0.49298099  0.84558609  0.10984751     0.04700
C751        C  0.01624782  0.86618068  0.11311101    -0.03900
Br752      Br  0.04883706  0.86867397  0.08589797    -0.03600
H753        H  0.03374355  0.90214664  0.13853132     0.08600
H754        H  0.45034807  0.83193639  0.12672580     0.06600
Br755      Br  0.43326599  0.86720891  0.17701536    -0.04000
C756        C  0.47075903  0.64920465  0.12102041    -0.10600
C757        C  0.99816662  0.65921514  0.11020091     0.05600
C758        C  0.02435976  0.64560985  0.12069165    -0.04400
C759        C  0.02263238  0.62353923  0.14221434    -0.08800
C760        C  0.99527275  0.61410103  0.15364578     0.04700
C761        C  0.46899487  0.62690887  0.14231466    -0.03900
Br762      Br  0.42971461  0.61573025  0.15433070    -0.03600
H763        H  0.45031915  0.65895842  0.11308826     0.08600
H764        H  0.04307552  0.61380783  0.15016405     0.06600
Br765      Br  0.06340858  0.65513429  0.10686023    -0.04000
N766        N  0.05916531  0.98458017  0.71229940    -0.07600
N767        N  0.07507484  0.97329150  0.69062976    -0.59700
N768        N  0.06257793  0.51592252  0.77873406    -0.07300
N769        N  0.08114150  0.52670911  0.79851466    -0.61800
N770        N  0.06197349  0.98691936  0.78009424    -0.06900
N771        N  0.08010971  0.97737889  0.80096888    -0.59700
N772        N  0.05951108  0.51360418  0.71113128    -0.06500
N773        N  0.07571096  0.52266284  0.68861381    -0.62200
C774        C  0.08501806  0.49728733  0.67583610     0.94600
C775        C  0.09204332  0.00245948  0.81216363     0.94400
N776        N  0.48447494  0.56543771  0.78056084    -0.07800
N777        N  0.47527253  0.58204301  0.80262594    -0.60300
N778        N  0.01105973  0.56391639  0.71169893    -0.05900
N779        N  0.02062527  0.58096835  0.69005425    -0.61500
N780        N  0.48195688  0.56446869  0.71291507    -0.07800
N781        N  0.47119413  0.58187355  0.69213227    -0.60500
N782        N  0.01361046  0.56521897  0.77943924    -0.05500
N783        N  0.02476422  0.58170720  0.80074176    -0.61600
Mn784      Mn  0.03735999  0.54034199  0.74512955     1.18400
C785        C  0.50061380  0.59204107  0.81515473     0.96700
C786        C  0.99549264  0.59199118  0.67788907     0.97300
N787        N  0.01104417  0.93884797  0.78337426    -0.07800
N788        N  0.02124521  0.92237477  0.80519056    -0.64100
N789        N  0.48007299  0.93715798  0.71588462    -0.06600
N790        N  0.46873949  0.92047128  0.69483959    -0.64800
N791        N  0.00918609  0.93643026  0.71502739    -0.07300
N792        N  0.01822524  0.91925059  0.69319857    -0.64400
N793        N  0.48189551  0.93928311  0.78380473    -0.06200
N794        N  0.47169542  0.92318770  0.80587698    -0.65100
Mn795      Mn  0.03603160  0.96091500  0.74780993     1.10700
C796        C  0.49643536  0.91293764  0.81925424     0.97900
C797        C  0.99271073  0.90931473  0.68085099     0.98000
N798        N  0.43231574  0.51602801  0.71528635    -0.07300
N799        N  0.41539170  0.52602625  0.69373534    -0.62700
N800        N  0.43380940  0.98850309  0.78365070    -0.06600
N801        N  0.41775874  0.97879540  0.80595372    -0.59400
N802        N  0.43413598  0.51743216  0.78320191    -0.08000
N803        N  0.41817493  0.52803643  0.80522431    -0.61400
N804        N  0.43189850  0.98706148  0.71586086    -0.06900
N805        N  0.41461892  0.97672053  0.69473194    -0.59500
Mn806      Mn  0.45752690  0.54156184  0.74802619     1.20200
Mn807      Mn  0.45628837  0.96234943  0.74977471     1.10100
Cl808      Cl  0.99684509  0.50128863  0.74768235    -0.87400
C809        C  0.40441994  0.50128742  0.68107585     0.94900
C810        C  0.40820172  0.00371239  0.81941364     0.94700
N811        N  0.48281061  0.71841991  0.56126905    -0.07600
N812        N  0.47311785  0.69668099  0.57808873    -0.59700
N813        N  0.00968751  0.78720459  0.56041177    -0.07300
N814        N  0.01909886  0.80895585  0.57740967    -0.61800
N815        N  0.48059216  0.78619382  0.56039140    -0.06900
N816        N  0.46961274  0.80721987  0.57741816    -0.59700
N817        N  0.01195171  0.71934534  0.56160418    -0.06500
N818        N  0.02260896  0.69823527  0.57869944    -0.62200
C819        C  0.99817226  0.68411940  0.58877542     0.94600
C820        C  0.49390720  0.82150709  0.58765594     0.94400
N821        N  0.05897983  0.78655390  0.98167237    -0.07800
N822        N  0.07398993  0.80903463  0.97074063    -0.60300
N823        N  0.06272230  0.72038223  0.51335440    -0.05900
N824        N  0.08260421  0.70195350  0.52435158    -0.61500
N825        N  0.06286081  0.71922208  0.98428437    -0.07800
N826        N  0.08291849  0.70012734  0.97501925    -0.60500
N827        N  0.05837920  0.78788752  0.51067730    -0.05500
N828        N  0.07289257  0.81131480  0.52003020    -0.61600
Mn829      Mn  0.03633464  0.75369799  0.53718812     1.18400
C830        C  0.08243641  0.82440315  0.99489962     0.96700
C831        C  0.09508114  0.68934405  0.00019525     0.97300
N832        N  0.43262627  0.78404548  0.51030435    -0.07800
N833        N  0.41558677  0.80561356  0.51994917    -0.64100
N834        N  0.43367915  0.71596572  0.98297364    -0.06600
N835        N  0.41632481  0.69483118  0.97290511    -0.64800
N836        N  0.43330521  0.71639689  0.51200369    -0.07300
N837        N  0.41545923  0.69564020  0.52225556    -0.64400
N838        N  0.43316744  0.78379165  0.98130645    -0.06200
N839        N  0.41658873  0.80530543  0.97057143    -0.65100
Mn840      Mn  0.45665952  0.75117534  0.53664677     1.10700
C841        C  0.40605358  0.81886855  0.99502095     0.97900
C842        C  0.40498701  0.68228388  0.99753655     0.98000
N843        N  0.01269558  0.71526519  0.93490915    -0.07300
N844        N  0.02299289  0.69371247  0.91813837    -0.62700
N845        N  0.48225867  0.78283656  0.93180051    -0.06600
N846        N  0.47210832  0.80355980  0.91384621    -0.59400
N847        N  0.01138877  0.78287863  0.93194567    -0.08000
N848        N  0.02167402  0.80358966  0.91422869    -0.62300
N849        N  0.48351720  0.71517426  0.93475973    -0.06900
N850        N  0.47347007  0.69358166  0.91807555    -0.59500
Mn851      Mn  0.03712486  0.75075443  0.95759155     1.20200
Mn852      Mn  0.45748924  0.74947328  0.95709201     1.10100
Cl853      Cl  0.49690827  0.75112703  0.99713909    -0.87400
C854        C  0.99821003  0.68021475  0.90785788     0.94900
C855        C  0.49702106  0.81626539  0.90292827     0.94700
N856        N  0.28030865  0.93511310  0.98173941    -0.07600
N857        N  0.30159175  0.91811193  0.97116003    -0.59700
N858        N  0.21258420  0.93552925  0.51113131    -0.07300
N859        N  0.18991722  0.92037391  0.52139291    -0.61800
N860        N  0.21198302  0.93622763  0.98213504    -0.06900
N861        N  0.18881799  0.92149628  0.97209415    -0.59700
N862        N  0.28055799  0.93477066  0.51073281    -0.06500
N863        N  0.30184879  0.91747666  0.52058146    -0.62200
C864        C  0.31470488  0.90723274  0.99573961     0.94600
C865        C  0.17514249  0.91177035  0.99693309     0.94400
N866        N  0.21280082  0.51139498  0.56199929    -0.07800
N867        N  0.19098164  0.52057939  0.57916017    -0.60300
N868        N  0.28137916  0.98236081  0.56101575    -0.05900
N869        N  0.30318370  0.97199313  0.57757913    -0.61500
N870        N  0.28104325  0.51137134  0.56167399    -0.07800
N871        N  0.30266936  0.52132745  0.57846289    -0.60500
N872        N  0.21341103  0.98237108  0.56128875    -0.05500
N873        N  0.19211406  0.97120809  0.57778534    -0.61600
Mn874      Mn  0.24709842  0.95803176  0.53666737     1.18400
C875        C  0.17833577  0.49520765  0.58891968     0.96700
C876        C  0.31645628  0.99664405  0.58816371     0.97300
N877        N  0.21289146  0.98603705  0.93390415    -0.07800
N878        N  0.19172741  0.97646429  0.91622717    -0.64100
N879        N  0.28156089  0.51393060  0.93533207    -0.06600
N880        N  0.30427773  0.52401715  0.92001769    -0.64800
N881        N  0.28093497  0.98496221  0.93445329    -0.07300
N882        N  0.30315927  0.97476031  0.91852412    -0.64400
N883        N  0.21335861  0.51507053  0.93436352    -0.06200
N884        N  0.19257590  0.52587389  0.91685961    -0.65100
Mn885      Mn  0.24643063  0.95985185  0.95731125     1.10700
C886        C  0.17900040  0.50152230  0.90600046     0.97900
C887        C  0.31771417  0.99934754  0.90975503     0.98000
N888        N  0.28136942  0.56184492  0.51423416    -0.07300
N889        N  0.30252670  0.57900483  0.52477815    -0.62700
N890        N  0.21396848  0.56345816  0.98476179    -0.06600
N891        N  0.19499310  0.58311155  0.97456212    -0.59400
N892        N  0.21350485  0.56309084  0.51386761    -0.08000
N893        N  0.19420893  0.58269031  0.52389303    -0.62300
N894        N  0.28165201  0.56217901  0.98516201    -0.06900
N895        N  0.30298585  0.57953099  0.97539464    -0.59500
Mn896      Mn  0.24699168  0.53751047  0.53871999     1.20200
Mn897      Mn  0.24759403  0.53922865  0.95925264     1.10100
Cl898      Cl  0.24690466  0.99871860  0.99801072    -0.87400
C899        C  0.31606607  0.58973741  0.00030151     0.94900
C900        C  0.18255935  0.59488372  0.99901262     0.94700
C901        C  0.36108265  0.88669436  0.97471011    -0.10600
C902        C  0.33811871  0.88474832  0.99552789     0.05600
C903        C  0.33761927  0.86099594  0.51562667    -0.04400
C904        C  0.36042894  0.84028501  0.51535769    -0.08800
C905        C  0.38348238  0.84222107  0.99477405     0.04700
C906        C  0.38374204  0.86557901  0.97416760    -0.03900
Br907      Br  0.41512421  0.87063997  0.94603282    -0.03600
H908        H  0.36158835  0.90483458  0.95913259     0.08600
H909        H  0.35962927  0.82204681  0.53076961     0.06600
Br910      Br  0.30509817  0.85380169  0.54211150    -0.04000
C911        C  0.37790099  0.64231948  0.52390897    -0.10600
C912        C  0.38266774  0.65820621  0.99764561     0.05600
C913        C  0.36544763  0.65111817  0.97251021    -0.04400
C914        C  0.34477893  0.62822347  0.97396199    -0.08800
C915        C  0.33978028  0.61246562  0.00023158     0.04700
C916        C  0.35665538  0.61982844  0.52554278    -0.03900
Br917      Br  0.35261796  0.60002847  0.56291119    -0.03600
H918        H  0.39089577  0.64738024  0.54349804     0.08600
H919        H  0.33169484  0.62342275  0.95438163     0.06600
Br920      Br  0.36659339  0.67297858  0.93608116    -0.04000
C921        C  0.11415918  0.85956741  0.02184626    -0.10600
C922        C  0.10280584  0.84998431  0.99466360     0.05600
C923        C  0.11274224  0.86385969  0.96848496    -0.04400
C924        C  0.13577277  0.88448795  0.96992130    -0.08800
C925        C  0.14863935  0.89245379  0.99706635     0.04700
C926        C  0.13649920  0.88070742  0.02340296    -0.03900
Br927      Br  0.14899713  0.89135637  0.56258478    -0.03600
H928        H  0.10619404  0.84997746  0.54231334     0.08600
H929        H  0.14393504  0.89401280  0.94951459     0.06600
Br930      Br  0.09585063  0.85656316  0.93017916    -0.04000
C931        C  0.15404470  0.63398668  0.02553637    -0.10600
C932        C  0.16107215  0.61988946  0.99876131     0.05600
C933        C  0.14788087  0.63065402  0.97244970    -0.04400
C934        C  0.12703254  0.65344067  0.97377209    -0.08800
C935        C  0.11902494  0.66668044  0.00063730     0.04700
C936        C  0.13382347  0.65749638  0.02666087    -0.03900
Br937      Br  0.12938986  0.67695693  0.56419624    -0.03600
H938        H  0.16473697  0.62698027  0.04589963     0.08600
H939        H  0.11669561  0.66064525  0.95329986     0.06600
Br940      Br  0.15639435  0.61572704  0.93359415    -0.04000
C941        C  0.35361343  0.02733041  0.87918684    -0.10600
C942        C  0.34331471  0.99979577  0.88921990     0.05600
C943        C  0.35691715  0.97386802  0.87828067    -0.04400
C944        C  0.37835216  0.97601632  0.85611734    -0.08800
C945        C  0.38744434  0.00352484  0.84485154     0.04700
C946        C  0.37558372  0.02949260  0.85753787    -0.03900
Br947      Br  0.38773044  0.06877533  0.84689820    -0.03600
H948        H  0.34417919  0.04754939  0.88785951     0.08600
H949        H  0.38763317  0.45574035  0.84736994     0.06600
Br950      Br  0.34811320  0.43462447  0.89225069    -0.04000
C951        C  0.11294464  0.98115539  0.85819971    -0.10600
C952        C  0.11422719  0.00305857  0.83626287     0.05600
C953        C  0.13665215  0.02480877  0.83791395    -0.04400
C954        C  0.15694050  0.52427850  0.86127604    -0.08800
C955        C  0.15576610  0.50222014  0.88303080     0.04700
C956        C  0.13325165  0.48067043  0.88156925    -0.03900
Br957      Br  0.12800635  0.45114657  0.91161059    -0.03600
H958        H  0.09564707  0.96451719  0.85748639     0.08600
H959        H  0.17440922  0.54073841  0.86188187     0.06600
Br960      Br  0.14247896  0.05437094  0.80799549    -0.04000
C961        C  0.12600066  0.97152984  0.65024294    -0.10600
C962        C  0.10670429  0.49579939  0.65147380     0.05600
C963        C  0.10979300  0.51864281  0.63048067    -0.04400
C964        C  0.13304906  0.51768500  0.61011436    -0.08800
C965        C  0.15319592  0.49406644  0.60978337     0.04700
C966        C  0.14913421  0.97042929  0.62978883    -0.03900
Br967      Br  0.17551359  0.93716321  0.63258420    -0.03600
H968        H  0.12390057  0.95369983  0.66623551     0.08600
H969        H  0.13536657  0.53564396  0.59428879     0.06600
Br970      Br  0.08237905  0.55099818  0.62748976    -0.04000
C971        C  0.38002925  0.97506056  0.63948580    -0.10600
C972        C  0.38294426  0.50089567  0.65634770     0.05600
C973        C  0.36475411  0.52539027  0.64956380    -0.04400
C974        C  0.34385031  0.52324907  0.62700890    -0.08800
C975        C  0.34036593  0.99727416  0.61057998     0.04700
C976        C  0.35928565  0.97311049  0.61651388    -0.03900
Br977      Br  0.35932025  0.93753102  0.59340333    -0.03600
H978        H  0.39421537  0.95630475  0.64389400     0.08600
H979        H  0.32971662  0.54210025  0.62281307     0.06600
Br980      Br  0.36554281  0.56220131  0.67066596    -0.04000
C981        C  0.02574535  0.64547583  0.87540500    -0.10600
C982        C  0.99834161  0.65603360  0.88573707     0.05600
C983        C  0.47199829  0.64409967  0.87356810    -0.04400
C984        C  0.47373556  0.62285009  0.85137234    -0.08800
C985        C  0.50107589  0.61303486  0.84029930     0.04700
C986        C  0.02745152  0.62435736  0.85292059    -0.03900
Br987      Br  0.06662150  0.61287325  0.84073838    -0.03600
H988        H  0.04628522  0.65415641  0.88450091     0.08600
H989        H  0.45314429  0.61436790  0.84222804     0.06600
Br990      Br  0.43257242  0.65574640  0.88478020    -0.04000
C991        C  0.02143167  0.87133714  0.84432670    -0.10600
C992        C  0.49653015  0.88984890  0.84242015     0.05600
C993        C  0.47186913  0.88406493  0.86081289    -0.04400
C994        C  0.47247549  0.85985268  0.88007781    -0.08800
C995        C  0.49728911  0.84117853  0.88170515     0.04700
C996        C  0.02187585  0.84698835  0.86322746    -0.03900
Br997      Br  0.05562799  0.82128360  0.86000083    -0.03600
H998        H  0.04032320  0.87495506  0.82997161     0.08600
H999        H  0.45343992  0.85571616  0.89401544     0.06600
Br1000     Br  0.43709064  0.90858378  0.86170995    -0.04000
C1001       C  0.01543967  0.88687513  0.63611471    -0.10600
C1002       C  0.99148723  0.88803706  0.65591520     0.05600
C1003       C  0.46749950  0.86833682  0.65174247    -0.04400
C1004       C  0.46853487  0.84744372  0.62896724    -0.08800
C1005       C  0.49295757  0.84564665  0.60981397     0.04700
C1006       C  0.01618232  0.86630325  0.61302203    -0.03900
Br1007     Br  0.04870527  0.86885839  0.58573508    -0.03600
H1008       H  0.03367014  0.90228704  0.63842631     0.08600
H1009       H  0.45037183  0.83193355  0.62675654     0.06600
Br1010     Br  0.43332318  0.86717954  0.67708062    -0.04000
C1011       C  0.47078207  0.64957586  0.62136799    -0.10600
C1012       C  0.99816831  0.65936480  0.61031179     0.05600
C1013       C  0.02432968  0.64551206  0.62055089    -0.04400
C1014       C  0.02260316  0.62347123  0.64211080    -0.08800
C1015       C  0.99526947  0.61432974  0.65384688     0.04700
C1016       C  0.46901200  0.62734045  0.64272415    -0.03900
Br1017     Br  0.42974090  0.61666113  0.65521758    -0.03600
H1018       H  0.45035849  0.65949831  0.61360520     0.08600
H1019       H  0.04302383  0.61351253  0.64983309     0.06600
Br1020     Br  0.06331336  0.65463191  0.60627384    -0.04000
N1021       N  0.55916210  0.48456753  0.21229619    -0.07600
N1022       N  0.57506695  0.47327001  0.19062787    -0.59700
N1023       N  0.56258114  0.01593353  0.27873047    -0.07300
N1024       N  0.58115383  0.02672274  0.29850192    -0.61800
N1025       N  0.56198996  0.48693852  0.28008619    -0.06900
N1026       N  0.58013537  0.47740180  0.30095395    -0.59700
N1027       N  0.55950868  0.01359204  0.21113014    -0.06500
N1028       N  0.57571303  0.02264617  0.18861420    -0.62200
C1029       C  0.58502211  0.99726782  0.17584414     0.94600
C1030       C  0.59207587  0.50248320  0.31213899     0.94400
N1031       N  0.98449078  0.06546704  0.28055875    -0.07800
N1032       N  0.97530223  0.08209551  0.30261409    -0.60300
N1033       N  0.51104805  0.06387828  0.21167621    -0.05900
N1034       N  0.52061437  0.08086909  0.18998598    -0.61500
N1035       N  0.98194406  0.06445459  0.21291754    -0.07800
N1036       N  0.97117594  0.08184253  0.19212377    -0.60500
N1037       N  0.51361306  0.06524173  0.27941484    -0.05500
N1038       N  0.52477858  0.08174044  0.30070102    -0.61600
Mn1039     Mn  0.53735624  0.04033889  0.24511871     1.18400
C1040       C  0.00065317  0.09210093  0.31511775     0.96700
C1041       C  0.49548353  0.09186893  0.17779863     0.97300
N1042       N  0.51106444  0.43886995  0.28339464    -0.07800
N1043       N  0.52127280  0.42239168  0.30520328    -0.64100
N1044       N  0.98004791  0.43716997  0.21592717    -0.06600
N1045       N  0.96869584  0.42049564  0.19488073    -0.64800
N1046       N  0.50917400  0.43642946  0.21505459    -0.07300
N1047       N  0.51820792  0.41923881  0.19323294    -0.64400
N1048       N  0.98193821  0.43930104  0.28384691    -0.06200
N1049       N  0.97175502  0.42320458  0.30592448    -0.65100
Mn1050     Mn  0.53603560  0.46092320  0.24781913     1.10700
C1051       C  0.99650415  0.41294949  0.31927907     0.97900
C1052       C  0.49269201  0.40929524  0.18089518     0.98000
N1053       N  0.93229340  0.01602969  0.21534388    -0.07300
N1054       N  0.91535675  0.02603038  0.19380425    -0.62700
N1055       N  0.93386961  0.48853230  0.28374470    -0.06600
N1056       N  0.91785173  0.47882556  0.30607021    -0.59400
N1057       N  0.93417195  0.01744286  0.28325771    -0.08000
N1058       N  0.91822764  0.02804575  0.30529335    -0.61400
N1059       N  0.93186239  0.48707519  0.21595982    -0.06900
N1060       N  0.91454051  0.47673579  0.19486426    -0.59500
Mn1061     Mn  0.95753016  0.04156853  0.24805535     1.20200
Mn1062     Mn  0.95629866  0.46236694  0.24984407     1.10100
Cl1063     Cl  0.49684034  0.00129442  0.24769361    -0.87400
C1064       C  0.90437171  0.00129450  0.18115224     0.94900
C1065       C  0.90830571  0.50374190  0.31953762     0.94700
N1066       N  0.98277911  0.21840441  0.06129801    -0.07600
N1067       N  0.97308814  0.19666130  0.07811246    -0.59700
N1068       N  0.50968648  0.28717359  0.06043831    -0.07300
N1069       N  0.51910200  0.30891752  0.07744502    -0.61800
N1070       N  0.98055334  0.28617841  0.06043640    -0.06900
N1071       N  0.96956705  0.30721321  0.07744850    -0.59700
N1072       N  0.51192662  0.21931272  0.06162016    -0.06500
N1073       N  0.52258751  0.19819066  0.07869622    -0.62200
C1074       C  0.49815523  0.18407451  0.08877957     0.94600
C1075       C  0.99385609  0.32151395  0.08767991     0.94400
N1076       N  0.55899758  0.28657854  0.48162874    -0.07800
N1077       N  0.57398604  0.30907284  0.47069283    -0.60300
N1078       N  0.56266767  0.22031739  0.01334611    -0.05900
N1079       N  0.58253452  0.20186920  0.02433563    -0.61500
N1080       N  0.56290569  0.21924711  0.48426860    -0.07800
N1081       N  0.58297859  0.20016454  0.47501176    -0.60500
N1082       N  0.55840320  0.28782041  0.01067825    -0.05500
N1083       N  0.57300709  0.31120198  0.02001374    -0.61600
Mn1084     Mn  0.53631944  0.25365403  0.03719791     1.18400
C1085       C  0.58241135  0.32445499  0.49485121     0.96700
C1086       C  0.59514636  0.18939722  0.50019244     0.97300
N1087       N  0.93260082  0.28404009  0.01035752    -0.07800
N1088       N  0.91558668  0.30562175  0.02001426    -0.64100
N1089       N  0.93370559  0.21597468  0.48294783    -0.06600
N1090       N  0.91632596  0.19485631  0.47288683    -0.64800
N1091       N  0.93327949  0.21638408  0.01203073    -0.07300
N1092       N  0.91546353  0.19559570  0.02227183    -0.64400
N1093       N  0.93319165  0.28379662  0.48125612    -0.06200
N1094       N  0.91659469  0.30529290  0.47051251    -0.65100
Mn1095     Mn  0.95662740  0.25116081  0.03668532     1.10700
C1096       C  0.90604731  0.31885582  0.49495737     0.97900
C1097       C  0.90497150  0.18233460  0.49752439     0.98000
N1098       N  0.51273205  0.21525502  0.43491013    -0.07300
N1099       N  0.52304071  0.19367707  0.41818143    -0.62700
N1100       N  0.98229998  0.28282440  0.43176623    -0.06600
N1101       N  0.97215277  0.30354252  0.41380554    -0.59400
N1102       N  0.51141451  0.28286380  0.43190656    -0.08000
N1103       N  0.52169931  0.30357214  0.41418723    -0.62300
N1104       N  0.98356877  0.21516856  0.43475008    -0.06900
N1105       N  0.97353319  0.19355442  0.41808583    -0.59500
Mn1106     Mn  0.53715619  0.25076023  0.45756561     1.20200
Mn1107     Mn  0.95752609  0.24947182  0.45705987     1.10100
Cl1108     Cl  0.99694002  0.25114385  0.49711503    -0.87400
C1109       C  0.49826597  0.18015732  0.40791254     0.94900
C1110       C  0.99706838  0.31624505  0.40289206     0.94700
N1111       N  0.78031016  0.43511134  0.48174183    -0.07600
N1112       N  0.80159064  0.41811211  0.47115699    -0.59700
N1113       N  0.71260670  0.43552680  0.01115873    -0.07300
N1114       N  0.68994810  0.42034389  0.02140525    -0.61800
N1115       N  0.71198831  0.43623220  0.48212475    -0.06900
N1116       N  0.68882086  0.42151059  0.47207520    -0.59700
N1117       N  0.78057972  0.43480600  0.01077784    -0.06500
N1118       N  0.80187053  0.41751862  0.02063657    -0.62200
C1119       C  0.81469642  0.40721635  0.49573175     0.94600
C1120       C  0.67513530  0.41178773  0.49690936     0.94400
N1121       N  0.71278040  0.01139236  0.06199411    -0.07800
N1122       N  0.69094805  0.02057241  0.07914100    -0.60300
N1123       N  0.78136898  0.48240778  0.06106352    -0.05900
N1124       N  0.80315154  0.47204971  0.07766075    -0.61500
N1125       N  0.78102814  0.01139301  0.06169311    -0.07800
N1126       N  0.80264433  0.02135791  0.07849205    -0.60500
N1127       N  0.71340257  0.48238837  0.06129907    -0.05500
N1128       N  0.69210199  0.47121804  0.07778442    -0.61600
Mn1129     Mn  0.74710616  0.45805666  0.03669999     1.18400
C1130       C  0.67830677  0.99519744  0.08889795     0.96700
C1131       C  0.81639984  0.49670449  0.08826666     0.97300
N1132       N  0.71291335  0.48604045  0.43390001    -0.07800
N1133       N  0.69176278  0.47646676  0.41620772    -0.64100
N1134       N  0.78157378  0.01393609  0.43533737    -0.06600
N1135       N  0.80429943  0.02401943  0.42003409    -0.64800
N1136       N  0.78095470  0.48496936  0.43447028    -0.07300
N1137       N  0.80319211  0.47476961  0.41855890    -0.64400
N1138       N  0.71337094  0.01508394  0.43436294    -0.06200
N1139       N  0.69259384  0.02588667  0.41685149    -0.65100
Mn1140     Mn  0.74644332  0.45985593  0.45731334     1.10700
C1141       C  0.67902267  0.00153445  0.40598695     0.97900
C1142       C  0.81775104  0.49935789  0.40979992     0.98000
N1143       N  0.78135016  0.06184242  0.01423358    -0.07300
N1144       N  0.80252411  0.07898182  0.02477786    -0.62700
N1145       N  0.71399538  0.06347724  0.48477128    -0.06600
N1146       N  0.69504098  0.08315210  0.47457542    -0.59400
N1147       N  0.71347771  0.06306359  0.01385178    -0.08000
N1148       N  0.69414321  0.08262669  0.02387155    -0.62300
N1149       N  0.78167248  0.06218794  0.48515912    -0.06900
N1150       N  0.80298535  0.07956532  0.47539022    -0.59500
Mn1151     Mn  0.74697114  0.03751101  0.03871931     1.20200
Mn1152     Mn  0.74761013  0.03923823  0.45925548     1.10100
Cl1153     Cl  0.74691309  0.49871557  0.49801700    -0.87400
C1154       C  0.81606140  0.08977855  0.50029633     0.94900
C1155       C  0.68262725  0.09494163  0.49902730     0.94700
C1156       C  0.86106349  0.38668389  0.47468059    -0.10600
C1157       C  0.83810505  0.38472815  0.49550324     0.05600
C1158       C  0.83766047  0.36105136  0.01571739    -0.04400
C1159       C  0.86046912  0.34034076  0.01545088    -0.08800
C1160       C  0.88345938  0.34219262  0.49470656     0.04700
C1161       C  0.88371550  0.36556215  0.47411332    -0.03900
Br1162     Br  0.91507838  0.37062846  0.44595914    -0.03600
H1163       H  0.86156908  0.40483556  0.45911565     0.08600
H1164       H  0.85967153  0.32210800  0.03086911     0.06600
Br1165     Br  0.80515424  0.35387069  0.04222411    -0.04000
C1166       C  0.87790844  0.14228110  0.02392136    -0.10600
C1167       C  0.88262722  0.15828183  0.49764472     0.05600
C1168       C  0.86534166  0.15125799  0.47253727    -0.04400
C1169       C  0.84468222  0.12835351  0.47398266    -0.08800
C1170       C  0.83974954  0.11253359  0.50022807     0.04700
C1171       C  0.85666012  0.11979199  0.02555510    -0.03900
Br1172     Br  0.85256004  0.10005225  0.06294881    -0.03600
H1173       H  0.89086219  0.14737872  0.04352744     0.08600
H1174       H  0.83155245  0.12359462  0.45442241     0.06600
Br1175     Br  0.86637604  0.17323928  0.43617755    -0.04000
C1176       C  0.61414280  0.35959667  0.52180528    -0.10600
C1177       C  0.60276952  0.35004317  0.49462129     0.05600
C1178       C  0.61268566  0.36394501  0.46845009    -0.04400
C1179       C  0.63573066  0.38455817  0.46989020    -0.08800
C1180       C  0.64862159  0.39248772  0.49703545     0.04700
C1181       C  0.63649157  0.38072397  0.52336835    -0.03900
Br1182     Br  0.64848062  0.39193341  0.06253788    -0.03600
H1183       H  0.60595874  0.35021990  0.04227255     0.08600
H1184       H  0.64388285  0.39410087  0.44948808     0.06600
Br1185     Br  0.59573264  0.35671293  0.43015903    -0.04000
C1186       C  0.65412428  0.13405980  0.52554910    -0.10600
C1187       C  0.66115807  0.11996358  0.49877451     0.05600
C1188       C  0.64798062  0.13073706  0.47245943    -0.04400
C1189       C  0.62712799  0.15351857  0.47377836    -0.08800
C1190       C  0.61910435  0.16674887  0.50064255     0.04700
C1191       C  0.63389891  0.15756761  0.52666976    -0.03900
Br1192     Br  0.62928960  0.17683679  0.06417294    -0.03600
H1193       H  0.66480982  0.12705009  0.54591490     0.08600
H1194       H  0.61679897  0.16072555  0.45330288     0.06600
Br1195     Br  0.65651850  0.11583297  0.43360050    -0.04000
C1196       C  0.85372559  0.52734475  0.37932131    -0.10600
C1197       C  0.84337462  0.49980708  0.38929464     0.05600
C1198       C  0.85695021  0.47387837  0.37832502    -0.04400
C1199       C  0.87841276  0.47603398  0.35619100    -0.08800
C1200       C  0.88755057  0.50354764  0.34497582     0.04700
C1201       C  0.87571907  0.52951141  0.35769549    -0.03900
Br1202     Br  0.88794260  0.56879096  0.34713325    -0.03600
H1203       H  0.84431427  0.54756231  0.38802139     0.08600
H1204       H  0.88763495  0.95573686  0.34737659     0.06600
Br1205     Br  0.84803697  0.93460325  0.39217222    -0.04000
C1206       C  0.61299775  0.48115803  0.35815462    -0.10600
C1207       C  0.61426607  0.50307911  0.33623447     0.05600
C1208       C  0.63668184  0.52483816  0.33790024    -0.04400
C1209       C  0.65696160  0.02429384  0.36126317    -0.08800
C1210       C  0.65579238  0.00222976  0.38301257     0.04700
C1211       C  0.63328295  0.98067496  0.38154491    -0.03900
Br1212     Br  0.62803715  0.95114616  0.41158235    -0.03600
H1213       H  0.59570670  0.46451380  0.35743280     0.08600
H1214       H  0.67442558  0.04075861  0.36187435     0.06600
Br1215     Br  0.64247600  0.55444424  0.30801943    -0.04000
C1216       C  0.62603128  0.47153782  0.15027215    -0.10600
C1217       C  0.60670309  0.99577662  0.15147889     0.05600
C1218       C  0.60974449  0.01859183  0.13044859    -0.04400
C1219       C  0.63298924  0.01763664  0.11006891    -0.08800
C1220       C  0.65317236  0.99404861  0.10976601     0.04700
C1221       C  0.64916365  0.47044973  0.12981720    -0.03900
Br1222     Br  0.67562477  0.43725288  0.13267483    -0.03600
H1223       H  0.62397385  0.45373594  0.16630184     0.08600
H1224       H  0.63527175  0.03557374  0.09421379     0.06600
Br1225     Br  0.58227972  0.05090214  0.12743059    -0.04000
C1226       C  0.87994375  0.47510954  0.13961553    -0.10600
C1227       C  0.88289829  0.00091099  0.15641947     0.05600
C1228       C  0.86472935  0.02541793  0.14961833    -0.04400
C1229       C  0.84383654  0.02328767  0.12704906    -0.08800
C1230       C  0.84028056  0.49733176  0.11071527     0.04700
C1231       C  0.85921915  0.47317737  0.11662718    -0.03900
Br1232     Br  0.85931637  0.43763866  0.09345578    -0.03600
H1233       H  0.89415062  0.45636303  0.14399809     0.08600
H1234       H  0.82971745  0.04214684  0.12284022     0.06600
Br1235     Br  0.86553700  0.06223273  0.17071373    -0.04000
C1236       C  0.52581994  0.14573843  0.37515013    -0.10600
C1237       C  0.49841758  0.15596239  0.38581009     0.05600
C1238       C  0.97209091  0.14372609  0.37395496    -0.04400
C1239       C  0.97381716  0.12254857  0.35168518    -0.08800
C1240       C  0.00114298  0.11306428  0.34028826     0.04700
C1241       C  0.52751376  0.12466250  0.35262947    -0.03900
Br1242     Br  0.56667881  0.11365864  0.33999734    -0.03600
H1243       H  0.54636134  0.15466153  0.38400375     0.08600
H1244       H  0.95322429  0.11382412  0.34277605     0.06600
Br1245     Br  0.93267689  0.15475530  0.38581048    -0.04000
C1246       C  0.52146597  0.37134268  0.34432045    -0.10600
C1247       C  0.99660687  0.38985466  0.34243415     0.05600
C1248       C  0.97195538  0.38408720  0.36084380    -0.04400
C1249       C  0.97255024  0.35986233  0.38008924    -0.08800
C1250       C  0.99734295  0.34116041  0.38167929     0.04700
C1251       C  0.52190417  0.34697809  0.36319977    -0.03900
Br1252     Br  0.55564833  0.32126483  0.35995346    -0.03600
H1253       H  0.54036021  0.37497121  0.32997154     0.08600
H1254       H  0.95352383  0.35573889  0.39404305     0.06600
Br1255     Br  0.93720513  0.40864443  0.36178960    -0.04000
C1256       C  0.51544161  0.38682713  0.13618422    -0.10600
C1257       C  0.49147185  0.38800993  0.15596283     0.05600
C1258       C  0.96741371  0.36840296  0.15171805    -0.04400
C1259       C  0.96845359  0.34750186  0.12894790    -0.08800
C1260       C  0.99289472  0.34567540  0.10981894     0.04700
C1261       C  0.51619840  0.36624515  0.11310099    -0.03900
Br1262     Br  0.54876697  0.36876250  0.08586592    -0.03600
H1263       H  0.53368009  0.40222785  0.13850887     0.08600
H1264       H  0.95028088  0.33200455  0.12672652     0.06600
Br1265     Br  0.93321212  0.36727919  0.17702368    -0.04000
C1266       C  0.97075635  0.14952380  0.12135050    -0.10600
C1267       C  0.49816441  0.15928112  0.11027171     0.05600
C1268       C  0.52434845  0.14559552  0.12068012    -0.04400
C1269       C  0.52262152  0.12352586  0.14220698    -0.08800
C1270       C  0.49526952  0.11417878  0.15373330     0.04700
C1271       C  0.96898788  0.12726652  0.14268233    -0.03900
Br1272     Br  0.92971662  0.11651775  0.15511231    -0.03600
H1273       H  0.95033095  0.15944010  0.11358461     0.08600
H1274       H  0.54305791  0.11371908  0.15008109     0.06600
Br1275     Br  0.56337795  0.15500461  0.10671763    -0.04000
N1276       N  0.55916933  0.48456755  0.71234887    -0.07600
N1277       N  0.57509416  0.47328671  0.69068722    -0.59700
N1278       N  0.56262085  0.01593960  0.77870638    -0.07300
N1279       N  0.58121648  0.02671490  0.79846541    -0.61800
N1280       N  0.56192548  0.48689829  0.78014655    -0.06900
N1281       N  0.58004968  0.47736360  0.80103462    -0.59700
N1282       N  0.55951909  0.01360638  0.71110221    -0.06500
N1283       N  0.57570998  0.02265630  0.68857444    -0.62200
C1284       C  0.58500472  0.99727629  0.67579692     0.94600
C1285       C  0.59196709  0.50244828  0.81223781     0.94400
N1286       N  0.98453011  0.06549412  0.78055363    -0.07800
N1287       N  0.97534193  0.08211940  0.80260997    -0.60300
N1288       N  0.51107642  0.06391536  0.71166488    -0.05900
N1289       N  0.52064205  0.08090475  0.68997249    -0.61500
N1290       N  0.98196800  0.06449457  0.71291379    -0.07800
N1291       N  0.97119835  0.08188311  0.69212090    -0.60500
N1292       N  0.51365101  0.06526495  0.77940717    -0.05500
N1293       N  0.52481435  0.08176301  0.80069695    -0.61600
Mn1294     Mn  0.53738659  0.04035997  0.74510216     1.18400
C1295       C  0.00069053  0.09212218  0.81511828     0.96700
C1296       C  0.49551108  0.09190832  0.67778712     0.97300
N1297       N  0.51101084  0.43880746  0.78337560    -0.07800
N1298       N  0.52119796  0.42231619  0.80518405    -0.64100
N1299       N  0.98009569  0.43712025  0.71587308    -0.06600
N1300       N  0.96876781  0.42043537  0.69482533    -0.64800
N1301       N  0.50920914  0.43639376  0.71503525    -0.07300
N1302       N  0.51826858  0.41919756  0.69322799    -0.64400
N1303       N  0.98190384  0.43922693  0.78378726    -0.06200
N1304       N  0.97170538  0.42311526  0.80584729    -0.65100
Mn1305     Mn  0.53601981  0.46088843  0.74783800     1.10700
C1306       C  0.99644662  0.41286635  0.81922239     0.97900
C1307       C  0.49276477  0.40924665  0.68087032     0.98000
N1308       N  0.93229936  0.01608167  0.71534087    -0.07300
N1309       N  0.91534573  0.02608066  0.69381203    -0.62700
N1310       N  0.93379886  0.48842503  0.78362814    -0.06600
N1311       N  0.91775007  0.47871015  0.80592960    -0.59400
N1312       N  0.93418079  0.01749617  0.78325425    -0.08000
N1313       N  0.91822743  0.02810456  0.80528182    -0.61400
N1314       N  0.93191362  0.48700006  0.71583484    -0.06900
N1315       N  0.91466616  0.47665975  0.69467840    -0.59500
Mn1316     Mn  0.95755268  0.04161204  0.74805121     1.20200
Mn1317     Mn  0.95629583  0.46229081  0.74975669     1.10100
Cl1318     Cl  0.49685394  0.00132811  0.74768057    -0.87400
C1319       C  0.90435393  0.00134108  0.68117037     0.94900
C1320       C  0.90818665  0.50362482  0.81938912     0.94700
N1321       N  0.98281041  0.21839510  0.56123698    -0.07600
N1322       N  0.97311318  0.19665346  0.57805048    -0.59700
N1323       N  0.50973248  0.28715094  0.56039771    -0.07300
N1324       N  0.51915899  0.30888212  0.57741289    -0.61800
N1325       N  0.98061921  0.28616724  0.56038816    -0.06900
N1326       N  0.96964667  0.30719414  0.57741715    -0.59700
N1327       N  0.51196186  0.21929352  0.56154937    -0.06500
N1328       N  0.52261934  0.19816541  0.57861954    -0.62200
C1329       C  0.49818502  0.18404897  0.58869775     0.94600
C1330       C  0.99394513  0.32147448  0.58765361     0.94400
N1331       N  0.55896817  0.28654823  0.98166314    -0.07800
N1332       N  0.57401573  0.30899282  0.97071054    -0.60300
N1333       N  0.56271399  0.22032986  0.51329621    -0.05900
N1334       N  0.58258682  0.20189254  0.52429144    -0.61500
N1335       N  0.56284683  0.21922639  0.98431810    -0.07800
N1336       N  0.58290304  0.20012920  0.97505618    -0.60500
N1337       N  0.55841747  0.28783411  0.51064415    -0.05500
N1338       N  0.57294696  0.31125175  0.51999828    -0.61600
Mn1339     Mn  0.53635545  0.25364702  0.53714733     1.18400
C1340       C  0.58250009  0.32436357  0.99485382     0.96700
C1341       C  0.59507582  0.18935999  0.00023272     0.97300
N1342       N  0.93264767  0.28406186  0.51031907    -0.07800
N1343       N  0.91561966  0.30563034  0.51998236    -0.64100
N1344       N  0.93368814  0.21594655  0.98300183    -0.06600
N1345       N  0.91632138  0.19481743  0.97294263    -0.64800
N1346       N  0.93330044  0.21640793  0.51197680    -0.07300
N1347       N  0.91547461  0.19562757  0.52221647    -0.64400
N1348       N  0.93314736  0.28376859  0.98129485    -0.06200
N1349       N  0.91656464  0.30527199  0.97054479    -0.65100
Mn1350     Mn  0.95666980  0.25116803  0.53663517     1.10700
C1351       C  0.90602358  0.31884657  0.99498533     0.97900
C1352       C  0.90497087  0.18229347  0.99758038     0.98000
N1353       N  0.51268294  0.21523267  0.93495885    -0.07300
N1354       N  0.52299748  0.19367472  0.91820907    -0.62700
N1355       N  0.98224836  0.28280706  0.93179733    -0.06600
N1356       N  0.97209347  0.30349635  0.91380704    -0.59400
N1357       N  0.51135871  0.28283769  0.93194259    -0.08000
N1358       N  0.52163558  0.30352903  0.91419785    -0.62300
N1359       N  0.98354633  0.21515653  0.93479850    -0.06900
N1360       N  0.97351852  0.19355223  0.91811691    -0.59500
Mn1361     Mn  0.53710401  0.25073820  0.95761181     1.20200
Mn1362     Mn  0.95749107  0.24944966  0.95710558     1.10100
Cl1363     Cl  0.99689941  0.25114734  0.99716490    -0.87400
C1364       C  0.49822772  0.18015779  0.90792712     0.94900
C1365       C  0.99700467  0.31619814  0.90288148     0.94700
N1366       N  0.78032458  0.43513514  0.98175096    -0.07600
N1367       N  0.80159587  0.41812479  0.97116611    -0.59700
N1368       N  0.71257489  0.43552786  0.51113415    -0.07300
N1369       N  0.68990246  0.42037377  0.52138444    -0.61800
N1370       N  0.71201416  0.43624095  0.98214997    -0.06900
N1371       N  0.68886186  0.42150459  0.97209604    -0.59700
N1372       N  0.78054649  0.43475928  0.51076786    -0.06500
N1373       N  0.80183351  0.41746625  0.52062708    -0.62200
C1374       C  0.81471558  0.40724711  0.99574147     0.94600
C1375       C  0.67518332  0.41176265  0.99692346     0.94400
N1376       N  0.71280995  0.01141241  0.56198298    -0.07800
N1377       N  0.69098114  0.02059677  0.57913347    -0.60300
N1378       N  0.78135278  0.48233928  0.56103825    -0.05900
N1379       N  0.80317789  0.47196227  0.57756762    -0.61500
N1380       N  0.78105300  0.01138969  0.56166692    -0.07800
N1381       N  0.80265248  0.02135285  0.57848674    -0.60500
N1382       N  0.71338800  0.48235622  0.56131044    -0.05500
N1383       N  0.69210123  0.47119460  0.57782172    -0.61600
Mn1384     Mn  0.74707714  0.45801977  0.53668772     1.18400
C1385       C  0.67833366  0.99522370  0.58889030     0.96700
C1386       C  0.81647373  0.49660637  0.58813592     0.97300
N1387       N  0.71289398  0.48603466  0.93390969    -0.07800
N1388       N  0.69171786  0.47645985  0.91624735    -0.64100
N1389       N  0.78158467  0.01395159  0.93537246    -0.06600
N1390       N  0.80430733  0.02404981  0.92007341    -0.64800
N1391       N  0.78093347  0.48494816  0.93444338    -0.07300
N1392       N  0.80314321  0.47473030  0.91850653    -0.64400
N1393       N  0.71337887  0.01506539  0.93437346    -0.06200
N1394       N  0.69260460  0.02585966  0.91685357    -0.65100
Mn1395     Mn  0.74644208  0.45985861  0.95732066     1.10700
C1396       C  0.67905119  0.00150220  0.90597891     0.97900
C1397       C  0.81769880  0.49930803  0.90971766     0.98000
N1398       N  0.78139440  0.06183511  0.51419673    -0.07300
N1399       N  0.80256669  0.07898134  0.52473360    -0.62700
N1400       N  0.71395374  0.06345611  0.98478679    -0.06600
N1401       N  0.69498193  0.08311523  0.97458942    -0.59400
N1402       N  0.71352615  0.06308968  0.51383624    -0.08000
N1403       N  0.69421443  0.08267437  0.52385764    -0.62300
N1404       N  0.78163587  0.06219663  0.98519647    -0.06900
N1405       N  0.80295617  0.07956746  0.97543419    -0.59500
Mn1406     Mn  0.74700819  0.03751898  0.53869577     1.20200
Mn1407     Mn  0.74759464  0.03923514  0.95927995     1.10100
Cl1408     Cl  0.74692534  0.49873091  0.99800934    -0.87400
C1409       C  0.81602760  0.08977577  0.00034434     0.94900
C1410       C  0.68254889  0.09488732  0.99904125     0.94700
C1411       C  0.86104020  0.38665939  0.97465474    -0.10600
C1412       C  0.83811469  0.38475032  0.99551746     0.05600
C1413       C  0.83762674  0.36099102  0.51565747    -0.04400
C1414       C  0.86044357  0.34028749  0.51538810    -0.08800
C1415       C  0.88345145  0.34219770  0.99472860     0.04700
C1416       C  0.88368350  0.36552887  0.97409083    -0.03900
Br1417     Br  0.91499934  0.37053396  0.94587394    -0.03600
H1418       H  0.86152723  0.40478126  0.95905539     0.08600
H1419       H  0.85962943  0.32202522  0.53077085     0.06600
Br1420     Br  0.80507803  0.35375611  0.54209730    -0.04000
C1421       C  0.87791362  0.14232199  0.52386804    -0.10600
C1422       C  0.88262667  0.15824173  0.99769898     0.05600
C1423       C  0.86533944  0.15122560  0.97259048    -0.04400
C1424       C  0.84466804  0.12833363  0.97403602    -0.08800
C1425       C  0.83972711  0.11251656  0.00028076     0.04700
C1426       C  0.85667688  0.11982237  0.52550260    -0.03900
Br1427     Br  0.85258691  0.10008658  0.56289917    -0.03600
H1428       H  0.89086416  0.14742645  0.54347434     0.08600
H1429       H  0.83153592  0.12358241  0.95447543     0.06600
Br1430     Br  0.86638844  0.17319857  0.93622576    -0.04000
C1431       C  0.61407542  0.35968054  0.02178425    -0.10600
C1432       C  0.60288847  0.34993217  0.99458972     0.05600
C1433       C  0.61298398  0.36365590  0.96838945    -0.04400
C1434       C  0.63599474  0.38430153  0.96984564    -0.08800
C1435       C  0.64868914  0.39243637  0.99702025     0.04700
C1436       C  0.63639004  0.38084896  0.02335055    -0.03900
Br1437     Br  0.64891175  0.39143041  0.56256017    -0.03600
H1438       H  0.60617057  0.34998853  0.54228147     0.08600
H1439       H  0.64427836  0.39370630  0.94943094     0.06600
Br1440     Br  0.59636605  0.35612149  0.93001077    -0.04000
C1441       C  0.65405342  0.13400931  0.02556604    -0.10600
C1442       C  0.66106514  0.11989897  0.99879280     0.05600
C1443       C  0.64785997  0.13065504  0.97248458    -0.04400
C1444       C  0.62701594  0.15344602  0.97380889    -0.08800
C1445       C  0.61902154  0.16669659  0.00067310     0.04700
C1446       C  0.63383310  0.15752141  0.02669217    -0.03900
Br1447     Br  0.62932313  0.17686640  0.56415552    -0.03600
H1448       H  0.66475606  0.12701017  0.04592612     0.08600
H1449       H  0.61666908  0.16064279  0.95333908     0.06600
Br1450     Br  0.65634135  0.11570352  0.93363182    -0.04000
C1451       C  0.85361305  0.52726331  0.87915493    -0.10600
C1452       C  0.84329238  0.49973525  0.88917879     0.05600
C1453       C  0.85687261  0.47379734  0.87823476    -0.04400
C1454       C  0.87831144  0.47593369  0.85607450    -0.08800
C1455       C  0.88742783  0.50343902  0.84482150     0.04700
C1456       C  0.87558918  0.52941305  0.85751435    -0.03900
Br1457     Br  0.88778212  0.56869047  0.84690617    -0.03600
H1458       H  0.84419665  0.54748801  0.88783336     0.08600
H1459       H  0.88769997  0.95580835  0.84743644     0.06600
Br1460     Br  0.84819900  0.93467978  0.89232463    -0.04000
C1461       C  0.61288797  0.48115511  0.85827280    -0.10600
C1462       C  0.61415736  0.50305481  0.83633144     0.05600
C1463       C  0.63658598  0.52480274  0.83796344    -0.04400
C1464       C  0.65700747  0.02426311  0.86124704    -0.08800
C1465       C  0.65583581  0.00219049  0.88298799     0.04700
C1466       C  0.63334006  0.98062291  0.88149576    -0.03900
Br1467     Br  0.62810093  0.95106880  0.91151191    -0.03600
H1468       H  0.59558856  0.46451853  0.85757312     0.08600
H1469       H  0.67446429  0.04073484  0.86187402     0.06600
Br1470     Br  0.64239470  0.55436008  0.80803577    -0.04000
C1471       C  0.62600624  0.47152389  0.65029791    -0.10600
C1472       C  0.60668544  0.99578331  0.65142851     0.05600
C1473       C  0.60974566  0.01860936  0.63041171    -0.04400
C1474       C  0.63300800  0.01766472  0.61005011    -0.08800
C1475       C  0.65318809  0.99407408  0.60974764     0.04700
C1476       C  0.64913153  0.47041548  0.62983599    -0.03900
Br1477     Br  0.67547277  0.43711678  0.63259396    -0.03600
H1478       H  0.62389238  0.45368286  0.66627625     0.08600
H1479       H  0.63530485  0.03561080  0.59420706     0.06600
Br1480     Br  0.58228242  0.05091997  0.62738617    -0.04000
C1481       C  0.88000700  0.47495649  0.63948723    -0.10600
C1482       C  0.88286703  0.00094408  0.65645103     0.05600
C1483       C  0.86465262  0.02542467  0.64968054    -0.04400
C1484       C  0.84375424  0.02327672  0.62711773    -0.08800
C1485       C  0.84042708  0.49722723  0.61050805     0.04700
C1486       C  0.85925196  0.47300822  0.61652348    -0.03900
Br1487     Br  0.85913551  0.43734046  0.59354730    -0.03600
H1488       H  0.89410752  0.45615437  0.64396809     0.08600
H1489       H  0.82960145  0.04211550  0.62292860     0.06600
Br1490     Br  0.86541932  0.06222515  0.67080243    -0.04000
C1491       C  0.52580473  0.14573192  0.87518968    -0.10600
C1492       C  0.49839282  0.15598370  0.88580189     0.05600
C1493       C  0.97209107  0.14384551  0.87385025    -0.04400
C1494       C  0.97383162  0.12265610  0.85159379    -0.08800
C1495       C  0.00116683  0.11309567  0.84028231     0.04700
C1496       C  0.52751816  0.12466110  0.85266482    -0.03900
Br1497     Br  0.56669223  0.11361785  0.84009631    -0.03600
H1498       H  0.54633942  0.15462592  0.88408762     0.08600
H1499       H  0.95324209  0.11399072  0.84261918     0.06600
Br1500     Br  0.93266450  0.15502275  0.88552966    -0.04000
C1501       C  0.52138386  0.37126559  0.84429317    -0.10600
C1502       C  0.99653930  0.38976596  0.84237184     0.05600
C1503       C  0.97188720  0.38400752  0.86078245    -0.04400
C1504       C  0.97247820  0.35978845  0.88003558    -0.08800
C1505       C  0.99727242  0.34108989  0.88164019     0.04700
C1506       C  0.52183434  0.34691398  0.86318946    -0.03900
Br1507     Br  0.55562547  0.32125456  0.86000623    -0.03600
H1508       H  0.54029243  0.37491343  0.82996799     0.08600
H1509       H  0.95345209  0.35567318  0.89399128     0.06600
Br1510     Br  0.93715025  0.40858242  0.86173169    -0.04000
C1511       C  0.51552629  0.38677336  0.63617030    -0.10600
C1512       C  0.49156068  0.38794898  0.65595310     0.05600
C1513       C  0.96752091  0.36832899  0.65171203    -0.04400
C1514       C  0.96856241  0.34743031  0.62894344    -0.08800
C1515       C  0.99299894  0.34561486  0.60980967     0.04700
C1516       C  0.51627501  0.36619903  0.61308069    -0.03900
Br1517     Br  0.54881869  0.36874061  0.58581777    -0.03600
H1518       H  0.53375994  0.40218058  0.63848959     0.08600
H1519       H  0.95038983  0.33193330  0.62671992     0.06600
Br1520     Br  0.93331009  0.36720876  0.67700704    -0.04000
C1521       C  0.97077283  0.14949562  0.62127399    -0.10600
C1522       C  0.49819095  0.15926516  0.61020127     0.05600
C1523       C  0.52437532  0.14559869  0.62063366    -0.04400
C1524       C  0.52264765  0.12354769  0.64217927    -0.08800
C1525       C  0.49529552  0.11420506  0.65370820     0.04700
C1526       C  0.96900485  0.12725749  0.64262750    -0.03900
Br1527     Br  0.92973268  0.11649097  0.65504242    -0.03600
H1528       H  0.95034595  0.15938554  0.61347819     0.08600
H1529       H  0.54308449  0.11375432  0.65006859     0.06600
Br1530     Br  0.56340910  0.15501758  0.60668963    -0.04000
N1531       N  0.55916955  0.98456180  0.21233527    -0.07600
N1532       N  0.57510029  0.97327598  0.19068066    -0.59700
N1533       N  0.56263651  0.51595945  0.27868549    -0.07300
N1534       N  0.58123530  0.52674165  0.29843798    -0.61800
N1535       N  0.56194539  0.98691246  0.28012731    -0.06900
N1536       N  0.58007449  0.97738188  0.30101242    -0.59700
N1537       N  0.55950932  0.51359709  0.21108241    -0.06500
N1538       N  0.57569142  0.52263931  0.18854503    -0.62200
C1539       C  0.58497929  0.49725430  0.17577202     0.94600
C1540       C  0.59199143  0.00246885  0.31221063     0.94400
N1541       N  0.98455403  0.56555687  0.28053495    -0.07800
N1542       N  0.97538560  0.58223164  0.30256499    -0.60300
N1543       N  0.51105988  0.56388064  0.21164287    -0.05900
N1544       N  0.52062081  0.58082284  0.18991381    -0.61500
N1545       N  0.98196001  0.56447510  0.21290244    -0.07800
N1546       N  0.97118781  0.58181706  0.19207157    -0.60500
N1547       N  0.51366893  0.56529863  0.27937863    -0.05500
N1548       N  0.52485152  0.58181755  0.30063969    -0.61600
Mn1549     Mn  0.53738734  0.54036220  0.24508126     1.18400
C1550       C  0.00074901  0.59224584  0.31503424     0.96700
C1551       C  0.49548856  0.59181222  0.17772186     0.97300
N1552       N  0.51104218  0.93882115  0.28338028    -0.07800
N1553       N  0.52124277  0.92232872  0.30518127    -0.64100
N1554       N  0.98007156  0.93711910  0.21589998    -0.06600
N1555       N  0.96873399  0.92043006  0.19485972    -0.64800
N1556       N  0.50919727  0.93639625  0.21504416    -0.07300
N1557       N  0.51824476  0.91920055  0.19323181    -0.64400
N1558       N  0.98191667  0.93923611  0.28381051    -0.06200
N1559       N  0.97172817  0.92312057  0.30587114    -0.65100
Mn1560     Mn  0.53602857  0.96089482  0.24783200     1.10700
C1561       C  0.99647490  0.91286827  0.31923249     0.97900
C1562       C  0.49273507  0.90924925  0.18088581     0.98000
N1563       N  0.93227086  0.51609959  0.21541300    -0.07300
N1564       N  0.91527649  0.52610081  0.19391751    -0.62700
N1565       N  0.93382236  0.98844115  0.28367759    -0.06600
N1566       N  0.91779507  0.97872639  0.30599346    -0.59400
N1567       N  0.93422488  0.51753482  0.28331997    -0.08000
N1568       N  0.91829209  0.52814478  0.30536261    -0.61400
N1569       N  0.93188596  0.98700520  0.21588487    -0.06900
N1570       N  0.91462153  0.97666706  0.19474061    -0.59500
Mn1571     Mn  0.95756008  0.54163764  0.24808025     1.20200
Mn1572     Mn  0.95629113  0.96229813  0.24979385     1.10100
Cl1573     Cl  0.49685807  0.50133710  0.24769951    -0.87400
C1574       C  0.90425577  0.50136211  0.18130187     0.94900
C1575       C  0.90823877  0.00363999  0.31945877     0.94700
N1576       N  0.98278704  0.71835925  0.06126264    -0.07600
N1577       N  0.97309397  0.69660811  0.07806681    -0.59700
N1578       N  0.50971148  0.78712941  0.06042901    -0.07300
N1579       N  0.51913710  0.80886621  0.07743854    -0.61800
N1580       N  0.98059318  0.78612983  0.06043195    -0.06900
N1581       N  0.96961805  0.80715831  0.07745752    -0.59700
N1582       N  0.51192754  0.71927108  0.06157681    -0.06500
N1583       N  0.52258688  0.69813774  0.07863813    -0.62200
C1584       C  0.49815465  0.68402110  0.08871883     0.94600
C1585       C  0.99391457  0.82144215  0.08769367     0.94400
N1586       N  0.55897522  0.78660068  0.48164519    -0.07800
N1587       N  0.57397156  0.80908586  0.47070172    -0.60300
N1588       N  0.56265818  0.72028394  0.01330329    -0.05900
N1589       N  0.58252072  0.70183124  0.02428984    -0.61500
N1590       N  0.56290571  0.71927372  0.48431298    -0.07800
N1591       N  0.58297874  0.70019123  0.47505795    -0.60500
N1592       N  0.55842299  0.78778526  0.01066911    -0.05500
N1593       N  0.57302670  0.81116339  0.02001382    -0.61600
Mn1594     Mn  0.53632826  0.75361532  0.03717144     1.18400
C1595       C  0.58240204  0.82447327  0.49485489     0.96700
C1596       C  0.59515007  0.68942962  0.50023846     0.97300
N1597       N  0.93262874  0.78403851  0.01036680    -0.07800
N1598       N  0.91561678  0.80561516  0.02003955    -0.64100
N1599       N  0.93371359  0.71594247  0.48297679    -0.06600
N1600       N  0.91631151  0.69483517  0.47292943    -0.64800
N1601       N  0.93328843  0.71638095  0.01199710    -0.07300
N1602       N  0.91548847  0.69557402  0.02222731    -0.64400
N1603       N  0.93316696  0.78375971  0.48124141    -0.06200
N1604       N  0.91656154  0.80524053  0.47047983    -0.65100
Mn1605     Mn  0.95664764  0.75113611  0.03666945     1.10700
C1606       C  0.90600437  0.81881607  0.49491307     0.97900
C1607       C  0.90494077  0.68234497  0.49757642     0.98000
N1608       N  0.51274655  0.71523995  0.43496180    -0.07300
N1609       N  0.52308297  0.69365436  0.41826391    -0.62700
N1610       N  0.98228585  0.78278693  0.43176214    -0.06600
N1611       N  0.97213048  0.80346733  0.41376345    -0.59400
N1612       N  0.51139840  0.78283948  0.43191183    -0.08000
N1613       N  0.52167673  0.80352733  0.41416505    -0.62300
N1614       N  0.98360137  0.71514557  0.43477849    -0.06900
N1615       N  0.97359647  0.69351789  0.41811085    -0.59500
Mn1616     Mn  0.53714838  0.75076541  0.45759748     1.20200
Mn1617     Mn  0.95752637  0.74943678  0.45707006     1.10100
Cl1618     Cl  0.99693132  0.75115575  0.49713896    -0.87400
C1619       C  0.49832794  0.68010613  0.40799036     0.94900
C1620       C  0.99704138  0.81617085  0.40284134     0.94700
N1621       N  0.78030007  0.93511216  0.48172210    -0.07600
N1622       N  0.80156648  0.91810229  0.47112762    -0.59700
N1623       N  0.71259774  0.93551303  0.01115559    -0.07300
N1624       N  0.68993490  0.92033839  0.02140179    -0.61800
N1625       N  0.71198735  0.93624034  0.48213252    -0.06900
N1626       N  0.68882231  0.92151598  0.47208589    -0.59700
N1627       N  0.78056787  0.93477313  0.01078551    -0.06500
N1628       N  0.80185688  0.91748661  0.02065027    -0.62200
C1629       C  0.81468621  0.90721075  0.49569629     0.94600
C1630       C  0.67514557  0.91178558  0.49691985     0.94400
N1631       N  0.71278097  0.51142219  0.06197744    -0.07800
N1632       N  0.69093132  0.52059744  0.07910690    -0.60300
N1633       N  0.78136342  0.98236627  0.06104948    -0.05900
N1634       N  0.80318756  0.97199941  0.07758620    -0.61500
N1635       N  0.78102548  0.51143480  0.06170559    -0.07800
N1636       N  0.80259188  0.52140881  0.07856421    -0.60500
N1637       N  0.71339479  0.98235879  0.06131251    -0.05500
N1638       N  0.69210421  0.97119309  0.07781528    -0.61600
Mn1639     Mn  0.74709368  0.95802745  0.03670181     1.18400
C1640       C  0.67828940  0.49521811  0.08885535     0.96700
C1641       C  0.81647095  0.99664863  0.08815853     0.97300
N1642       N  0.71288694  0.98604172  0.43390309    -0.07800
N1643       N  0.69171517  0.97647244  0.41623325    -0.64100
N1644       N  0.78158719  0.51396379  0.43537798    -0.06600
N1645       N  0.80431924  0.52406428  0.42009408    -0.64800
N1646       N  0.78092513  0.98494245  0.43443674    -0.07300
N1647       N  0.80314385  0.97472450  0.41851251    -0.64400
N1648       N  0.71338272  0.51508277  0.43437060    -0.06200
N1649       N  0.69261641  0.52588090  0.41684370    -0.65100
Mn1650     Mn  0.74642495  0.95985307  0.45730466     1.10700
C1651       C  0.67906731  0.50152567  0.40595836     0.97900
C1652       C  0.81770896  0.99930180  0.40973746     0.98000
N1653       N  0.78137271  0.56184672  0.01420224    -0.07300
N1654       N  0.80256506  0.57896850  0.02473850    -0.62700
N1655       N  0.71396645  0.56347239  0.48479833    -0.06600
N1656       N  0.69502017  0.58315732  0.47460488    -0.59400
N1657       N  0.71349826  0.56308145  0.01382376    -0.08000
N1658       N  0.69415690  0.58263850  0.02383967    -0.62300
N1659       N  0.78164132  0.56220587  0.48520310    -0.06900
N1660       N  0.80293820  0.57960656  0.47544214    -0.59500
Mn1661     Mn  0.74698172  0.53753692  0.03870139     1.20200
Mn1662     Mn  0.74759911  0.53924626  0.45928563     1.10100
Cl1663     Cl  0.74692517  0.99871978  0.49799938    -0.87400
C1664       C  0.81600177  0.58982260  0.50035290     0.94900
C1665       C  0.68260659  0.59494600  0.49905810     0.94700
C1666       C  0.86100350  0.88662335  0.47459238    -0.10600
C1667       C  0.83807988  0.88470807  0.49545662     0.05600
C1668       C  0.83764439  0.86100983  0.01570316    -0.04400
C1669       C  0.86046041  0.84030588  0.01544613    -0.08800
C1670       C  0.88341358  0.84215090  0.49464541     0.04700
C1671       C  0.88364276  0.86548858  0.47401445    -0.03900
Br1672     Br  0.91494675  0.87049577  0.44578525    -0.03600
H1673       H  0.86149184  0.90475314  0.45900182     0.08600
H1674       H  0.85963735  0.82204332  0.03082796     0.06600
Br1675     Br  0.80508985  0.85378284  0.04213812    -0.04000
C1676       C  0.87792839  0.64228158  0.02387919    -0.10600
C1677       C  0.88256130  0.65832763  0.49771241     0.05600
C1678       C  0.86518675  0.65139680  0.47264198    -0.04400
C1679       C  0.84452559  0.62849392  0.47408000    -0.08800
C1680       C  0.83966993  0.61259602  0.50029265     0.04700
C1681       C  0.85668785  0.61978617  0.02551574    -0.03900
Br1682     Br  0.85253622  0.60011155  0.06293795    -0.03600
H1683       H  0.89084109  0.64742128  0.04350119     0.08600
H1684       H  0.83133267  0.62379874  0.45454614     0.06600
Br1685     Br  0.86608990  0.67352760  0.43636897    -0.04000
C1686       C  0.61410647  0.85964412  0.52180481    -0.10600
C1687       C  0.60277099  0.85005281  0.49461759     0.05600
C1688       C  0.61273088  0.86391237  0.46844042    -0.04400
C1689       C  0.63578093  0.88451856  0.46988491    -0.08800
C1690       C  0.64863127  0.89248745  0.49703820     0.04700
C1691       C  0.63645602  0.88077104  0.52336985    -0.03900
Br1692     Br  0.64853730  0.89185671  0.06254446    -0.03600
H1693       H  0.60599845  0.85016477  0.04227871     0.08600
H1694       H  0.64396608  0.89402793  0.44947995     0.06600
Br1695     Br  0.59583243  0.85663524  0.43013323    -0.04000
C1696       C  0.65413448  0.63409005  0.52558243    -0.10600
C1697       C  0.66114746  0.61997903  0.49880912     0.05600
C1698       C  0.64795833  0.63074782  0.47249800    -0.04400
C1699       C  0.62711269  0.65353594  0.47382057    -0.08800
C1700       C  0.61910647  0.66677815  0.50068460     0.04700
C1701       C  0.63391547  0.65760477  0.52670585    -0.03900
Br1702     Br  0.62925101  0.67679334  0.06413890    -0.03600
H1703       H  0.66483097  0.62708621  0.54594412     0.08600
H1704       H  0.61677369  0.66073702  0.45334835     0.06600
Br1705     Br  0.65646710  0.61582450  0.43364027    -0.04000
C1706       C  0.85367695  0.02726187  0.37924080    -0.10600
C1707       C  0.84331889  0.99973060  0.38921952     0.05600
C1708       C  0.85687704  0.97379315  0.37824807    -0.04400
C1709       C  0.87833489  0.97593721  0.35610811    -0.08800
C1710       C  0.88748267  0.00344746  0.34489269     0.04700
C1711       C  0.87566500  0.02941725  0.35761226    -0.03900
Br1712     Br  0.88790183  0.06869405  0.34705309    -0.03600
H1713       H  0.84427801  0.04748467  0.38794167     0.08600
H1714       H  0.88772212  0.45583754  0.34746097     0.06600
Br1715     Br  0.84812493  0.43468241  0.39224019    -0.04000
C1716       C  0.61289904  0.98118282  0.35825071    -0.10600
C1717       C  0.61417847  0.00307761  0.33630587     0.05600
C1718       C  0.63661101  0.02482150  0.33793833    -0.04400
C1719       C  0.65702182  0.52430192  0.36123472    -0.08800
C1720       C  0.65585709  0.50221727  0.38296356     0.04700
C1721       C  0.63336797  0.48064427  0.38146030    -0.03900
Br1722     Br  0.62812140  0.45108720  0.41146975    -0.03600
H1723       H  0.59559409  0.96455170  0.35755250     0.08600
H1724       H  0.67447077  0.54078134  0.36187300     0.06600
Br1725     Br  0.64241891  0.05438414  0.30801628    -0.04000
C1726       C  0.62605749  0.97153949  0.15033148    -0.10600
C1727       C  0.60664827  0.49575284  0.15139537     0.05600
C1728       C  0.60966303  0.51855024  0.13034183    -0.04400
C1729       C  0.63291998  0.51761157  0.10997348    -0.08800
C1730       C  0.65313946  0.49405417  0.10970471     0.04700
C1731       C  0.64917820  0.97043605  0.12986462    -0.03900
Br1732     Br  0.67559263  0.93719921  0.13267998    -0.03600
H1733       H  0.62398170  0.95372567  0.16634522     0.08600
H1734       H  0.63518524  0.53553741  0.09410290     0.06600
Br1735     Br  0.58214431  0.55081053  0.12728282    -0.04000
C1736       C  0.87999808  0.97500000  0.13951511    -0.10600
C1737       C  0.88274239  0.50097081  0.15660866     0.05600
C1738       C  0.86445613  0.52542059  0.14991994    -0.04400
C1739       C  0.84357583  0.52329237  0.12733473    -0.08800
C1740       C  0.84041057  0.99727184  0.11054609     0.04700
C1741       C  0.85926070  0.97306588  0.11653526    -0.03900
Br1742     Br  0.85920540  0.93743823  0.09349797    -0.03600
H1743       H  0.89412202  0.95620911  0.14397126     0.08600
H1744       H  0.82937094  0.54210390  0.12319695     0.06600
Br1745     Br  0.86509572  0.56213057  0.17120533    -0.04000
C1746       C  0.52592363  0.64612950  0.37481764    -0.10600
C1747       C  0.49852545  0.65591603  0.38588657     0.05600
C1748       C  0.97224979  0.64324435  0.37446337    -0.04400
C1749       C  0.97397091  0.62217468  0.35208571    -0.08800
C1750       C  0.00126950  0.61317941  0.34022919     0.04700
C1751       C  0.52761722  0.62511237  0.35224634    -0.03900
Br1752     Br  0.56676528  0.61474153  0.33904197    -0.03600
H1753       H  0.54645125  0.65536541  0.38337526     0.08600
H1754       H  0.95339159  0.61308925  0.34351319     0.06600
Br1755     Br  0.93288114  0.65336377  0.38724064    -0.04000
C1756       C  0.52142966  0.87125119  0.34425997    -0.10600
C1757       C  0.99657414  0.88975938  0.34237011     0.05600
C1758       C  0.97192029  0.88398861  0.36077393    -0.04400
C1759       C  0.97251194  0.85976029  0.38001225    -0.08800
C1760       C  0.99730670  0.84106330  0.38160619     0.04700
C1761       C  0.52187018  0.84688622  0.36313854    -0.03900
Br1762     Br  0.55562567  0.82118473  0.35991145    -0.03600
H1763       H  0.54032919  0.87489003  0.32992055     0.08600
H1764       H  0.95348596  0.85563698  0.39396594     0.06600
Br1765     Br  0.93717658  0.90855433  0.36173206    -0.04000
C1766       C  0.51550402  0.88675962  0.13619868    -0.10600
C1767       C  0.49152312  0.88795709  0.15596190     0.05600
C1768       C  0.96745610  0.86835102  0.15170430    -0.04400
C1769       C  0.96850287  0.84744545  0.12894070    -0.08800
C1770       C  0.99296357  0.84559423  0.10983971     0.04700
C1771       C  0.51626018  0.86617875  0.11311548    -0.03900
Br1772     Br  0.54884312  0.86868177  0.08589658    -0.03600
H1773       H  0.53374978  0.90215030  0.13853291     0.08600
H1774       H  0.95031446  0.83196952  0.12669733     0.06600
Br1775     Br  0.93320940  0.86727633  0.17695297    -0.04000
C1776       C  0.97075707  0.64921284  0.12103323    -0.10600
C1777       C  0.49816776  0.65921016  0.11018966     0.05600
C1778       C  0.52436177  0.64560576  0.12068017    -0.04400
C1779       C  0.52263560  0.62353262  0.14220083    -0.08800
C1780       C  0.49527646  0.61409311  0.15363231     0.04700
C1781       C  0.96899162  0.62691725  0.14232774    -0.03900
Br1782     Br  0.92971087  0.61573584  0.15434029    -0.03600
H1783       H  0.95031790  0.65896724  0.11310052     0.08600
H1784       H  0.54307907  0.61380194  0.15015055     0.06600
Br1785     Br  0.56341051  0.65513828  0.10685476    -0.04000
N1786       N  0.55917313  0.98457583  0.71230798    -0.07600
N1787       N  0.57508642  0.97328668  0.69064126    -0.59700
N1788       N  0.56256547  0.51591919  0.77875154    -0.07300
N1789       N  0.58113486  0.52670400  0.79852828    -0.61800
N1790       N  0.56196905  0.98691871  0.78010253    -0.06900
N1791       N  0.58010838  0.97737510  0.80097311    -0.59700
N1792       N  0.55950766  0.51359848  0.71114807    -0.06500
N1793       N  0.57570717  0.52265675  0.68863035    -0.62200
C1794       C  0.58501415  0.49728132  0.67585295     0.94600
C1795       C  0.59204987  0.00245279  0.81216545     0.94400
N1796       N  0.98448784  0.56543736  0.78056300    -0.07800
N1797       N  0.97528837  0.58204462  0.80262817    -0.60300
N1798       N  0.51105764  0.56391038  0.71169964    -0.05900
N1799       N  0.52062699  0.58094700  0.69004449    -0.61500
N1800       N  0.98195902  0.56447080  0.71291855    -0.07800
N1801       N  0.97119251  0.58188738  0.69214794    -0.60500
N1802       N  0.51359769  0.56521695  0.77944284    -0.05500
N1803       N  0.52474885  0.58170172  0.80074913    -0.61600
Mn1804     Mn  0.53735214  0.54033831  0.74513968     1.18400
C1805       C  0.00063119  0.59204649  0.81515119     0.96700
C1806       C  0.49549682  0.59196323  0.67786750     0.97300
N1807       N  0.51102991  0.93885378  0.78337568    -0.07800
N1808       N  0.52122312  0.92237925  0.80519434    -0.64100
N1809       N  0.98006641  0.93715857  0.71589167    -0.06600
N1810       N  0.96872546  0.92048281  0.69484208    -0.64800
N1811       N  0.50919300  0.93642784  0.71503112    -0.07300
N1812       N  0.51824001  0.91923652  0.69321501    -0.64400
N1813       N  0.98190994  0.93927756  0.78381303    -0.06200
N1814       N  0.97171743  0.92318430  0.80589024    -0.65100
Mn1815     Mn  0.53602982  0.96091527  0.74781606     1.10700
C1816       C  0.99646209  0.91293546  0.81925981     0.97900
C1817       C  0.49273010  0.90929506  0.68086355     0.98000
N1818       N  0.93231815  0.51602478  0.71529547    -0.07300
N1819       N  0.91539444  0.52602266  0.69374385    -0.62700
N1820       N  0.93382071  0.98849449  0.78367323    -0.06600
N1821       N  0.91777609  0.97878557  0.80597990    -0.59400
N1822       N  0.93415332  0.51742631  0.78321170    -0.08000
N1823       N  0.91819271  0.52802930  0.80523481    -0.61400
N1824       N  0.93189209  0.98705693  0.71588429    -0.06900
N1825       N  0.91461410  0.97671655  0.69475366    -0.59500
Mn1826     Mn  0.95753555  0.54155922  0.74803205     1.20200
Mn1827     Mn  0.95629148  0.96234436  0.74979100     1.10100
Cl1828     Cl  0.49683410  0.50128793  0.74768661    -0.87400
C1829       C  0.90442288  0.50128477  0.68108196     0.94900
C1830       C  0.90822030  0.00370216  0.81944124     0.94700
N1831       N  0.98280767  0.71842835  0.56127278    -0.07600
N1832       N  0.97311366  0.69669102  0.57809280    -0.59700
N1833       N  0.50970274  0.78719262  0.56040524    -0.07300
N1834       N  0.51912028  0.80893362  0.57741277    -0.61800
N1835       N  0.98057726  0.78620251  0.56039251    -0.06900
N1836       N  0.96959154  0.80723595  0.57740615    -0.59700
N1837       N  0.51195466  0.71933441  0.56159527    -0.06500
N1838       N  0.52261279  0.69822087  0.57868523    -0.62200
C1839       C  0.49817764  0.68410649  0.58876647     0.94600
C1840       C  0.99388207  0.82153144  0.58764147     0.94400
N1841       N  0.55898671  0.78652498  0.98165363    -0.07800
N1842       N  0.57403172  0.80897437  0.97070954    -0.60300
N1843       N  0.56271461  0.72036223  0.51334019    -0.05900
N1844       N  0.58259078  0.70192824  0.52433738    -0.61500
N1845       N  0.56283989  0.71920294  0.98427475    -0.07800
N1846       N  0.58289641  0.70010718  0.97500969    -0.60500
N1847       N  0.55839584  0.78786566  0.51066009    -0.05500
N1848       N  0.57293280  0.81128178  0.52000626    -0.61600
Mn1849     Mn  0.53634084  0.75368332  0.53717605     1.18400
C1850       C  0.58251681  0.82433509  0.99485805     0.96700
C1851       C  0.59506366  0.68932931  0.00018582     0.97300
N1852       N  0.93261970  0.78404533  0.51030432    -0.07800
N1853       N  0.91558064  0.80561331  0.51994904    -0.64100
N1854       N  0.93369469  0.71596090  0.98296822    -0.06600
N1855       N  0.91634242  0.69482533  0.97289806    -0.64800
N1856       N  0.93330437  0.71639675  0.51200605    -0.07300
N1857       N  0.91545564  0.69564291  0.52225934    -0.64400
N1858       N  0.93317561  0.78378699  0.98130402    -0.06200
N1859       N  0.91659652  0.80530087  0.97056948    -0.65100
Mn1860     Mn  0.95665387  0.75117891  0.53664833     1.10700
C1861       C  0.90605747  0.81885955  0.99501993     0.97900
C1862       C  0.90500352  0.68227770  0.99752901     0.98000
N1863       N  0.51267118  0.71525870  0.93490552    -0.07300
N1864       N  0.52296641  0.69370627  0.91813417    -0.62700
N1865       N  0.98227317  0.78283938  0.93180262    -0.06600
N1866       N  0.97212377  0.80356037  0.91384518    -0.59400
N1867       N  0.51137440  0.78287286  0.93193964    -0.08000
N1868       N  0.52165820  0.80358524  0.91422278    -0.62300
N1869       N  0.98354124  0.71517739  0.93476216    -0.06900
N1870       N  0.97349665  0.69358319  0.91807879    -0.59500
Mn1871     Mn  0.53710898  0.75073979  0.95758250     1.20200
Mn1872     Mn  0.95750462  0.74947247  0.95709072     1.10100
Cl1873     Cl  0.99691673  0.75112859  0.99714308    -0.87400
C1874       C  0.49818266  0.68021176  0.90785374     0.94900
C1875       C  0.99703769  0.81626616  0.90292998     0.94700
N1876       N  0.78032943  0.93511450  0.98175908    -0.07600
N1877       N  0.80161136  0.91811279  0.97117981    -0.59700
N1878       N  0.71258490  0.93553095  0.51114136    -0.07300
N1879       N  0.68991868  0.92036734  0.52139484    -0.61800
N1880       N  0.71201192  0.93622375  0.98214638    -0.06900
N1881       N  0.68885642  0.92149125  0.97209205    -0.59700
N1882       N  0.78055746  0.93477085  0.51074837    -0.06500
N1883       N  0.80184573  0.91747419  0.52059778    -0.62200
C1884       C  0.81471971  0.90722862  0.99575902     0.94600
C1885       C  0.67517261  0.91175606  0.99692073     0.94400
N1886       N  0.71278426  0.51138996  0.56199872    -0.07800
N1887       N  0.69096366  0.52057333  0.57915879    -0.60300
N1888       N  0.78138110  0.98236256  0.56102808    -0.05900
N1889       N  0.80318495  0.97199360  0.57759143    -0.61500
N1890       N  0.78102884  0.51136610  0.56168264    -0.07800
N1891       N  0.80265439  0.52132094  0.57847352    -0.60500
N1892       N  0.71341604  0.98237832  0.56130015    -0.05500
N1893       N  0.69212397  0.97121746  0.57780382    -0.61600
Mn1894     Mn  0.74709913  0.95803439  0.53668026     1.18400
C1895       C  0.67831669  0.49520111  0.58891650     0.96700
C1896       C  0.81646245  0.99664339  0.58817236     0.97300
N1897       N  0.71291066  0.98602292  0.93391010    -0.07800
N1898       N  0.69175199  0.97644536  0.91622863    -0.64100
N1899       N  0.78157646  0.51394195  0.93533742    -0.06600
N1900       N  0.80429028  0.52402595  0.92001653    -0.64800
N1901       N  0.78095398  0.98495709  0.93447034    -0.07300
N1902       N  0.80318205  0.97475447  0.91854783    -0.64400
N1903       N  0.71337268  0.51507699  0.93436437    -0.06200
N1904       N  0.69258800  0.52587429  0.91685868    -0.65100
Mn1905     Mn  0.74645310  0.95984747  0.95732625     1.10700
C1906       C  0.67901749  0.50151872  0.90600116     0.97900
C1907       C  0.81773521  0.99934162  0.90977738     0.98000
N1908       N  0.78136053  0.56184244  0.51424034    -0.07300
N1909       N  0.80251514  0.57900539  0.52478594    -0.62700
N1910       N  0.71397643  0.56346994  0.98475941    -0.06600
N1911       N  0.69499837  0.58311963  0.97455734    -0.59400
N1912       N  0.71349408  0.56307948  0.51386376    -0.08000
N1913       N  0.69418761  0.58266916  0.52388677    -0.62300
N1914       N  0.78165925  0.56218893  0.98516441    -0.06900
N1915       N  0.80299773  0.57953351  0.97539497    -0.59500
Mn1916     Mn  0.74697942  0.53750507  0.53872244     1.20200
Mn1917     Mn  0.74760470  0.53923926  0.95925447     1.10100
Cl1918     Cl  0.74691755  0.99871356  0.99802123    -0.87400
C1919       C  0.81607972  0.58973941  0.00030057     0.94900
C1920       C  0.68256103  0.59489063  0.99900671     0.94700
C1921       C  0.86110321  0.88670202  0.97473755    -0.10600
C1922       C  0.83812978  0.88474244  0.99554325     0.05600
C1923       C  0.83761799  0.86099339  0.51563720    -0.04400
C1924       C  0.86042600  0.84028130  0.51536141    -0.08800
C1925       C  0.88348531  0.84220967  0.99477530     0.04700
C1926       C  0.88375889  0.86558379  0.97418803    -0.03900
Br1927     Br  0.91515523  0.87066265  0.94607259    -0.03600
H1928       H  0.86161902  0.90485510  0.95917502     0.08600
H1929       H  0.85962711  0.82204063  0.53077030     0.06600
Br1930     Br  0.80510119  0.85379733  0.54212669    -0.04000
C1931       C  0.87790679  0.64230847  0.52391008    -0.10600
C1932       C  0.88268543  0.65820033  0.99763819     0.05600
C1933       C  0.86545876  0.65111870  0.97250596    -0.04400
C1934       C  0.84479104  0.62822349  0.97395822    -0.08800
C1935       C  0.83979716  0.61246288  0.00022720     0.04700
C1936       C  0.85665938  0.61981810  0.52554444    -0.03900
Br1937     Br  0.85264355  0.59999286  0.56290178    -0.03600
H1938       H  0.89091760  0.64735428  0.54349255     0.08600
H1939       H  0.83170149  0.62342711  0.95438035     0.06600
Br1940     Br  0.86658945  0.67299417  0.93608540    -0.04000
C1941       C  0.61409620  0.85964396  0.02179175    -0.10600
C1942       C  0.60289555  0.84990965  0.99459844     0.05600
C1943       C  0.61297014  0.86365163  0.96839968    -0.04400
C1944       C  0.63597088  0.88430745  0.96985343    -0.08800
C1945       C  0.64868109  0.89242778  0.99702397     0.04700
C1946       C  0.63640667  0.88081633  0.02335627    -0.03900
Br1947     Br  0.64879765  0.89156723  0.56256105    -0.03600
H1948       H  0.60609721  0.85007291  0.54228378     0.08600
H1949       H  0.64423815  0.89372759  0.94943956     0.06600
Br1950     Br  0.59634457  0.85612137  0.93002388    -0.04000
C1951       C  0.65404100  0.63398956  0.02552825    -0.10600
C1952       C  0.66106834  0.61989069  0.99875410     0.05600
C1953       C  0.64787046  0.63064708  0.97244277    -0.04400
C1954       C  0.62701849  0.65342995  0.97376429    -0.08800
C1955       C  0.61901141  0.66667127  0.00062865     0.04700
C1956       C  0.63381396  0.65749378  0.02665225    -0.03900
Br1957     Br  0.62936713  0.67692674  0.56418335    -0.03600
H1958       H  0.66473711  0.62698823  0.04589119     0.08600
H1959       H  0.61667717  0.66062904  0.95329240     0.06600
Br1960     Br  0.65637561  0.61571003  0.93358956    -0.04000
C1961       C  0.85364222  0.02732203  0.87921943    -0.10600
C1962       C  0.84333803  0.99978791  0.88924727     0.05600
C1963       C  0.85693671  0.97385881  0.87830687    -0.04400
C1964       C  0.87837043  0.97600587  0.85614285    -0.08800
C1965       C  0.88746702  0.00351437  0.84488107     0.04700
C1966       C  0.87561409  0.02948282  0.85757278    -0.03900
Br1967     Br  0.88777729  0.06876444  0.84694774    -0.03600
H1968       H  0.84421235  0.04754150  0.88789538     0.08600
H1969       H  0.88762999  0.45573204  0.84736508     0.06600
Br1970     Br  0.84810314  0.43462131  0.89224219    -0.04000
C1971       C  0.61296531  0.98113535  0.85819222    -0.10600
C1972       C  0.61424200  0.00304452  0.83625991     0.05600
C1973       C  0.63667022  0.02479151  0.83791028    -0.04400
C1974       C  0.65693754  0.52427917  0.86128732    -0.08800
C1975       C  0.65578018  0.50220980  0.88303229     0.04700
C1976       C  0.63327861  0.48064633  0.88156259    -0.03900
Br1977     Br  0.62805965  0.45109720  0.91158682    -0.03600
H1978       H  0.59566745  0.96449757  0.85747884     0.08600
H1979       H  0.67439656  0.54074890  0.86189811     0.06600
Br1980     Br  0.64249294  0.05435898  0.80799631    -0.04000
C1981       C  0.62603362  0.97154157  0.65027605    -0.10600
C1982       C  0.60669553  0.49579399  0.65148554     0.05600
C1983       C  0.60978527  0.51864117  0.63049618    -0.04400
C1984       C  0.63303694  0.51768234  0.61012450    -0.08800
C1985       C  0.65317803  0.49405887  0.60978320     0.04700
C1986       C  0.64917044  0.97044752  0.62982602    -0.03900
Br1987     Br  0.67557323  0.93720128  0.63263918    -0.03600
H1988       H  0.62394299  0.95371767  0.66627684     0.08600
H1989       H  0.63535568  0.53564449  0.59430320     0.06600
Br1990     Br  0.58237859  0.55100405  0.62751678    -0.04000
C1991       C  0.88000158  0.97504031  0.63952929    -0.10600
C1992       C  0.88295025  0.50089337  0.65634709     0.05600
C1993       C  0.86481226  0.52541280  0.64950982    -0.04400
C1994       C  0.84389909  0.52326684  0.62696299    -0.08800
C1995       C  0.84037631  0.99727243  0.61058524     0.04700
C1996       C  0.85926395  0.97309162  0.61655179    -0.03900
Br1997     Br  0.85926802  0.93748941  0.59347601    -0.03600
H1998       H  0.89415887  0.95626941  0.64396496     0.08600
H1999       H  0.82980450  0.54213879  0.62273031     0.06600
Br2000     Br  0.86569664  0.56227893  0.67051107    -0.04000
C2001       C  0.52572018  0.64546341  0.87541507    -0.10600
C2002       C  0.49831511  0.65603056  0.88573444     0.05600
C2003       C  0.97202335  0.64409458  0.87358048    -0.04400
C2004       C  0.97375800  0.62284763  0.85138135    -0.08800
C2005       C  0.00109665  0.61304142  0.84029605     0.04700
C2006       C  0.52742930  0.62434272  0.85293359    -0.03900
Br2007     Br  0.56660091  0.61284313  0.84077036    -0.03600
H2008       H  0.54625913  0.65413763  0.88451927     0.08600
H2009       H  0.95316568  0.61435913  0.84224527     0.06600
Br2010     Br  0.93259791  0.65572394  0.88481326    -0.04000
C2011       C  0.52141730  0.87136373  0.84434836    -0.10600
C2012       C  0.99656210  0.88984877  0.84242650     0.05600
C2013       C  0.97191597  0.88409295  0.86084719    -0.04400
C2014       C  0.97251528  0.85987864  0.88010882    -0.08800
C2015       C  0.99730947  0.84117764  0.88170751     0.04700
C2016       C  0.52186750  0.84701504  0.86324878    -0.03900
Br2017     Br  0.55564940  0.82134628  0.86004965    -0.03600
H2018       H  0.54032120  0.87500158  0.83001447     0.08600
H2019       H  0.95349136  0.85576316  0.89406869     0.06600
Br2020     Br  0.93717219  0.90865828  0.86179005    -0.04000
C2021       C  0.51547044  0.88684184  0.63614038    -0.10600
C2022       C  0.49151611  0.88800531  0.65593829     0.05600
C2023       C  0.96746499  0.86837610  0.65171284    -0.04400
C2024       C  0.96850012  0.84748226  0.62893817    -0.08800
C2025       C  0.99292555  0.84568036  0.60978899     0.04700
C2026       C  0.51621574  0.86626782  0.61304980    -0.03900
Br2027     Br  0.54874462  0.86881909  0.58576977    -0.03600
H2028       H  0.53369942  0.90225590  0.63845100     0.08600
H2029       H  0.95033539  0.83197445  0.62672578     0.06600
Br2030     Br  0.93327858  0.86723065  0.67703815    -0.04000
C2031       C  0.97077844  0.64968869  0.62147849    -0.10600
C2032       C  0.49817829  0.65934179  0.61029348     0.05600
C2033       C  0.52434904  0.64556510  0.62061351    -0.04400
C2034       C  0.52262092  0.62351716  0.64216556    -0.08800
C2035       C  0.49527886  0.61429204  0.65381537     0.04700
C2036       C  0.96900815  0.62746512  0.64284549    -0.03900
Br2037     Br  0.92974506  0.61694662  0.65549852    -0.03600
H2038       H  0.95036123  0.65967885  0.61378575     0.08600
H2039       H  0.54304791  0.61362466  0.64995580     0.06600
Br2040     Br  0.56335509  0.65481271  0.60647923    -0.04000
loop_ 
_geom_bond_atom_site_label_1 
_geom_bond_atom_site_label_2 
_geom_bond_distance 
_geom_bond_site_symmetry_2 
_ccdc_geom_bond_type 
N1            N2   1.318       .  A
N1          N517   1.315       .  A
N1          Mn30   2.194       .  S
N2          C519   1.353       .  A
N3            N4   1.320       .  A
N3          N515   1.315   1_545  A
N3          Mn19   2.196       .  S
N4          C520   1.352       .  A
N5            N6   1.321       .  A
N5          N513   1.315       .  A
N5          Mn30   2.212       .  S
N6           C10   1.355       .  A
N7            N8   1.319       .  A
N7          N511   1.315   1_545  A
N7          Mn19   2.198       .  S
N8            C9   1.353   1_545  A
C9          N512   1.353       .  A
C9          C197   1.475       .  S
C10         N514   1.352       .  A
C10         C187   1.480       .  S
N11          N12   1.317       .  A
N11        N1037   1.314       .  A
N11         Mn41   2.195       .  S
N12          C20   1.354       .  A
N13          N14   1.319       .  A
N13        N1035   1.314   1_455  A
N13         Mn19   2.197       .  S
N14          C21   1.355   1_455  A
N15          N16   1.319       .  A
N15        N1033   1.314       .  A
N15         Mn41   2.194       .  S
N16        C1041   1.352       .  A
N17          N18   1.319       .  A
N17        N1031   1.314   1_455  A
N17         Mn19   2.198       .  S
N18        C1040   1.352       .  A
Mn19        Cl43   2.545   1_455  S
C20        N1038   1.352       .  A
C20         C220   1.483       .  S
C21        N1036   1.352       .  A
C21         C250   1.484       .  S
N22          N23   1.319       .  A
N22        N1048   1.314   1_455  A
N22         Mn30   2.203       .  S
N23        C1051   1.356   1_455  A
N24          N25   1.319       .  A
N24        N1046   1.314       .  A
N24         Mn42   2.192       .  S
N25        C1052   1.352       .  A
N26          N27   1.322       .  A
N26        N1044   1.314   1_455  A
N26         Mn30   2.214       .  S
N27          C32   1.356   1_455  A
N28          N29   1.319       .  A
N28        N1042   1.314       .  A
N28         Mn42   2.189       .  S
N29          C31   1.351       .  A
Mn30       Cl553   2.543   1_455  S
C31        N1043   1.356       .  A
C31         C227   1.479       .  S
C32        N1045   1.352       .  A
C32         C237   1.485       .  S
N33          N34   1.318       .  A
N33         N549   1.314   1_545  A
N33         Mn41   2.197       .  S
N34          C44   1.352       .  A
N35          N36   1.317       .  A
N35         N547   1.313       .  A
N35         Mn42   2.187       .  S
N36          C45   1.353       .  A
N37          N38   1.320       .  A
N37         N545   1.313   1_545  A
N37         Mn41   2.200       .  S
N38         C555   1.354       .  A
N39          N40   1.320       .  A
N39         N543   1.314       .  A
N39         Mn42   2.193       .  S
N40         C554   1.354       .  A
Mn41      Cl1063   2.542       .  S
Mn42      Cl1573   2.544       .  S
Cl43       Mn540   2.542   1_645  S
Cl43      Mn1061   2.542       .  S
Cl43      Mn1572   2.544   1_545  S
C44         N550   1.354   1_545  A
C44         C207   1.480       .  S
C45         N548   1.354       .  A
C45         C180   1.484       .  S
N46          N47   1.318       .  A
N46        N1072   1.315       .  A
N46         Mn75   2.196       .  S
N47        C1074   1.354       .  A
N48          N49   1.320       .  A
N48        N1070   1.314   1_455  A
N48         Mn64   2.203       .  S
N49        C1075   1.354   1_455  A
N50          N51   1.321       .  A
N50        N1068   1.314       .  A
N50         Mn75   2.199       .  S
N51          C55   1.354       .  A
N52          N53   1.319       .  A
N52        N1066   1.315   1_455  A
N52         Mn64   2.201       .  S
N53          C54   1.353   1_455  A
C54        N1067   1.354       .  A
C54         C247   1.484       .  S
C55        N1069   1.354       .  A
C55         C240   1.485       .  S
N56          N57   1.318       .  A
N56         N317   1.315       .  A
N56         Mn86   2.188       .  S
N57          C65   1.351       .  A
N58          N59   1.321       .  A
N58         N315   1.315   1_554  A
N58         Mn64   2.204       .  S
N59         C321   1.353       .  A
N60          N61   1.319       .  A
N60         N313   1.315       .  A
N60         Mn86   2.199       .  S
N61          C66   1.355       .  A
N62          N63   1.317       .  A
N62         N311   1.315   1_554  A
N62         Mn64   2.196       .  S
N63         C320   1.354   1_554  A
Mn64      Cl1363   2.541   1_454  S
C65         N318   1.354       .  A
C65         C157   1.478       .  S
C66         N314   1.353       .  A
C66         C170   1.489       .  S
N67          N68   1.317       .  A
N67         N328   1.316   1_554  A
N67         Mn75   2.192       .  S
N68         C331   1.351   1_554  A
N69          N70   1.318       .  A
N69         N326   1.314       .  A
N69         Mn87   2.196       .  S
N70          C77   1.351       .  A
N71          N72   1.321       .  A
N71         N324   1.314   1_554  A
N71         Mn75   2.199       .  S
N72         C332   1.355   1_554  A
N73          N74   1.320       .  A
N73         N322   1.316       .  A
N73         Mn87   2.195       .  S
N74          C76   1.352       .  A
Mn75       Cl343   2.549   1_554  S
C76         N323   1.351       .  A
C76         C140   1.467       .  S
C77         N327   1.355       .  A
C77         C147   1.484       .  S
N78          N79   1.321       .  A
N78        N1104   1.315   1_455  A
N78         Mn86   2.203       .  S
N79          C89   1.356   1_455  A
N80          N81   1.322       .  A
N80        N1102   1.313       .  A
N80         Mn87   2.199       .  S
N81          C90   1.356       .  A
N82          N83   1.317       .  A
N82        N1100   1.313   1_455  A
N82         Mn86   2.191       .  S
N83        C1110   1.350   1_455  A
N84          N85   1.316       .  A
N84        N1098   1.315       .  A
N84         Mn87   2.193       .  S
N85        C1109   1.350       .  A
Mn86      Cl1108   2.548   1_455  S
Mn87        Cl88   2.540       .  S
Cl88      Mn1339   2.541       .  S
Cl88       Mn330   2.549       .  S
Cl88      Mn1106   2.548       .  S
C89        N1105   1.350       .  A
C89         C217   1.484       .  S
C90        N1103   1.350       .  A
C90         C230   1.480       .  S
N91          N92   1.320       .  A
N91         N352   1.314       .  A
N91        Mn120   2.192       .  S
N92          C99   1.352       .  A
N93          N94   1.316       .  A
N93         N350   1.313   1_554  A
N93        Mn109   2.191       .  S
N94         C355   1.350   1_554  A
N95          N96   1.320       .  A
N95         N348   1.313       .  A
N95        Mn120   2.195       .  S
N96         C100   1.355       .  A
N97          N98   1.316       .  A
N97         N346   1.314   1_554  A
N97        Mn109   2.183       .  S
N98         C354   1.350   1_554  A
C99         N353   1.350       .  A
C99         C137   1.466       .  S
C100        N349   1.350       .  A
C100        C160   1.481       .  S
N101        N102   1.321       .  A
N101        N617   1.315   1_545  A
N101       Mn131   2.210       .  S
N102        C110   1.356   1_545  A
N103        N104   1.322       .  A
N103        N615   1.314       .  A
N103       Mn109   2.196       .  S
N104        C111   1.354       .  A
N105        N106   1.316       .  A
N105        N613   1.314   1_545  A
N105       Mn131   2.198       .  S
N106        C621   1.352   1_545  A
N107        N108   1.317       .  A
N107        N611   1.315       .  A
N107       Mn109   2.183       .  S
N108        C620   1.349       .  A
Mn109      Cl388   2.539   1_554  S
C110        N618   1.349       .  A
C110        C200   1.476       .  S
C111        N616   1.352       .  A
C111        C210   1.481       .  S
N112        N113   1.319       .  A
N112        N628   1.315       .  A
N112       Mn120   2.193       .  S
N113        C631   1.352       .  A
N114        N115   1.319       .  A
N114        N626   1.313   1_545  A
N114       Mn132   2.198       .  S
N115        C632   1.355   1_545  A
N116        N117   1.318       .  A
N116        N624   1.313       .  A
N116       Mn120   2.187       .  S
N117        C122   1.352       .  A
N118        N119   1.320       .  A
N118        N622   1.315   1_545  A
N118       Mn132   2.203       .  S
N119        C121   1.354       .  A
Mn120      Cl133   2.548       .  S
C121        N623   1.352   1_545  A
C121        C190   1.476       .  S
C122        N625   1.355       .  A
C122        C177   1.482       .  S
N123        N124   1.320       .  A
N123        N384   1.314   1_554  A
N123       Mn131   2.201       .  S
N124        C389   1.353       .  A
N125        N126   1.317       .  A
N125        N382   1.316       .  A
N125       Mn132   2.199       .  S
N126        C135   1.350       .  A
N127        N128   1.323       .  A
N127        N380   1.316   1_554  A
N127       Mn131   2.209       .  S
N128        C390   1.357   1_554  A
N129        N130   1.318       .  A
N129        N378   1.314       .  A
N129       Mn132   2.195       .  S
N130        C134   1.354       .  A
Mn131      Cl898   2.546   1_544  S
Mn132      Cl643   2.536   1_545  S
Cl133      Mn364   2.539       .  S
Cl133      Mn896   2.546       .  S
Cl133      Mn642   2.536       .  S
C134        N379   1.353       .  A
C134        C150   1.484       .  S
C135        N383   1.357       .  A
C135        C167   1.490       .  S
C136        C137   1.403       .  A
C136        C141   1.399       .  A
C136        H143   1.082       .  S
C137        C393   1.409       .  A
C138        C139   1.391       .  A
C138        C392   1.409   1_554  A
C138       Br145   1.922       .  S
C139        C395   1.400   1_554  A
C139        H144   1.081       .  S
C140        C141   1.409       .  A
C140        C394   1.400       .  A
C141       Br142   1.918       .  S
C146        C151   1.400       .  A
C146        C402   1.405   1_554  A
C146        H153   1.087       .  S
C147        C148   1.414       .  A
C147        C401   1.405       .  A
C148        C149   1.396       .  A
C148       Br155   1.923       .  S
C149        C150   1.404       .  A
C149        H154   1.087       .  S
C150        C406   1.414       .  A
C151        C405   1.414       .  A
C151       Br152   1.922       .  S
C156        C157   1.402       .  A
C156        C161   1.392       .  A
C156        H418   1.085       .  S
C157        C158   1.413       .  A
C158        C159   1.399       .  A
C158       Br165   1.922       .  S
C159        C160   1.406       .  A
C159        H164   1.083       .  S
C160        C161   1.415       .  A
C161       Br417   1.922       .  S
Br162       C416   1.922       .  S
H163        C411   1.085       .  S
C166        C167   1.406       .  A
C166        C171   1.402       .  A
C166        H173   1.087       .  S
C167        C168   1.417       .  A
C168        C169   1.397       .  A
C168       Br175   1.923       .  S
C169        C170   1.403       .  A
C169        H174   1.087       .  S
C170        C171   1.415       .  A
C171       Br427   1.920       .  S
Br172       C426   1.920       .  S
C176        C177   1.405       .  A
C176        C181   1.397       .  A
C176        H183   1.083       .  S
C177        C178   1.414       .  A
C178        C179   1.396       .  A
C178       Br695   1.924       .  S
C179        C180   1.406       .  A
C179        H694   1.081       .  S
C180        C181   1.413       .  A
C181       Br182   1.922       .  S
H184        C689   1.081       .  S
Br185       C688   1.924       .  S
C186        C187   1.404       .  A
C186        C701   1.399       .  A
C186        H193   1.085       .  S
C187        C188   1.414       .  A
C188        C699   1.399       .  A
C188       Br195   1.921       .  S
C189        C190   1.402       .  A
C189        C698   1.399       .  A
C189        H194   1.085       .  S
C190        C191   1.410   1_545  A
C191        C696   1.399       .  A
C191       Br192   1.920       .  S
C196        C201   1.396       .  A
C196        C707   1.403       .  A
C196        H203   1.088       .  S
C197        C198   1.410   1_565  A
C197        C706   1.403       .  A
C198        C199   1.397       .  A
C198       Br205   1.921       .  S
C199        C200   1.403   1_545  A
C199        H204   1.088       .  S
C200        C711   1.414       .  A
C201        C710   1.414       .  A
C201       Br202   1.922       .  S
C206        C211   1.401       .  A
C206        C717   1.407       .  A
C206        H213   1.081       .  S
C207        C208   1.412       .  A
C207        C716   1.407   1_545  A
C208        C209   1.393       .  A
C208       Br215   1.922       .  S
C209        C720   1.404   1_545  A
C209        H214   1.081       .  S
C210        C211   1.412       .  A
C210        C719   1.404       .  A
C211       Br212   1.921       .  S
C216        C217   1.405   1_455  A
C216        C221   1.399       .  A
C216        H223   1.087       .  S
C217       C1238   1.416       .  A
C218        C219   1.394       .  A
C218       C1237   1.416       .  A
C218       Br225   1.923       .  S
C219        C220   1.403       .  A
C219        H224   1.087       .  S
C220       C1241   1.415       .  A
C221       C1240   1.415       .  A
C221       Br222   1.922       .  S
C226        C231   1.394       .  A
C226       C1247   1.402   1_455  A
C226        H233   1.084       .  S
C227        C228   1.414       .  A
C227       C1246   1.402       .  A
C228        C229   1.400       .  A
C228       Br235   1.921       .  S
C229        C230   1.404       .  A
C229        H234   1.082       .  S
C230       C1251   1.413       .  A
C231       C1250   1.413   1_455  A
C231       Br232   1.921       .  S
C236        C237   1.405   1_455  A
C236        C241   1.401       .  A
C236        H243   1.084       .  S
C237       C1258   1.415       .  A
C238        C239   1.400       .  A
C238       C1257   1.415       .  A
C238       Br245   1.922       .  S
C239        C240   1.404       .  A
C239        H244   1.084       .  S
C240       C1261   1.412       .  A
C241       C1260   1.412   1_455  A
C241       Br242   1.921       .  S
C246        C251   1.397       .  A
C246       C1267   1.405       .  A
C246        H253   1.083       .  S
C247        C248   1.414   1_655  A
C247       C1266   1.405       .  A
C248        C249   1.397       .  A
C248       Br255   1.918       .  S
C249        C250   1.405   1_455  A
C249        H254   1.083       .  S
C250       C1271   1.415       .  A
C251       C1270   1.415       .  A
C251       Br252   1.921       .  S
N256        N257   1.318       .  A
N256        N772   1.315       .  A
N256       Mn285   2.195       .  S
N257        C774   1.353       .  A
N258        N770   1.315   1_545  A
N258        N259   1.320       .  A
N258       Mn274   2.196       .  S
N259        C775   1.352       .  A
N260        N768   1.315       .  A
N260        N261   1.322       .  A
N260       Mn285   2.212       .  S
N261        C265   1.355       .  A
N262        N766   1.315   1_545  A
N262        N263   1.319       .  A
N262       Mn274   2.199       .  S
N263        C264   1.353   1_545  A
C264        N767   1.353       .  A
C264        C452   1.476       .  S
C265        N769   1.352       .  A
C265        C442   1.480       .  S
N266       N1292   1.314       .  A
N266        N267   1.317       .  A
N266       Mn296   2.195       .  S
N267        C275   1.354       .  A
N268        N269   1.319       .  A
N268       N1290   1.314   1_455  A
N268       Mn274   2.197       .  S
N269        C276   1.355   1_455  A
N270       N1288   1.314       .  A
N270        N271   1.319       .  A
N270       Mn296   2.194       .  S
N271       C1296   1.352       .  A
N272       N1286   1.314   1_455  A
N272        N273   1.320       .  A
N272       Mn274   2.198       .  S
N273       C1295   1.353       .  A
Mn274      Cl298   2.546   1_455  S
C275       N1293   1.352       .  A
C275        C475   1.483       .  S
C276       N1291   1.352       .  A
C276        C505   1.484       .  S
N277        N278   1.319       .  A
N277       N1303   1.314   1_455  A
N277       Mn285   2.204       .  S
N278       C1306   1.356   1_455  A
N279       N1301   1.314       .  A
N279        N280   1.319       .  A
N279       Mn297   2.192       .  S
N280       C1307   1.352       .  A
N281       N1299   1.314   1_455  A
N281        N282   1.322       .  A
N281       Mn285   2.213       .  S
N282        C287   1.356   1_455  A
N283       N1297   1.314       .  A
N283        N284   1.319       .  A
N283       Mn297   2.189       .  S
N284        C286   1.351       .  A
Mn285      Cl808   2.542   1_455  S
C286       N1298   1.356       .  A
C286        C482   1.479       .  S
C287       N1300   1.352       .  A
C287        C492   1.485       .  S
N288        N289   1.318       .  A
N288        N804   1.314   1_545  A
N288       Mn296   2.197       .  S
N289        C299   1.352       .  A
N290        N291   1.317       .  A
N290        N802   1.313       .  A
N290       Mn297   2.187       .  S
N291        C300   1.353       .  A
N292        N800   1.313   1_545  A
N292        N293   1.320       .  A
N292       Mn296   2.200       .  S
N293        C810   1.354       .  A
N294        N798   1.314       .  A
N294        N295   1.320       .  A
N294       Mn297   2.193       .  S
N295        C809   1.354       .  A
Mn296     Cl1318   2.542       .  S
Mn297     Cl1828   2.544       .  S
Cl298      Mn795   2.542   1_645  S
Cl298     Mn1316   2.542       .  S
Cl298     Mn1827   2.544   1_545  S
C299        N805   1.354   1_545  A
C299        C462   1.480       .  S
C300        N803   1.354       .  A
C300        C435   1.484       .  S
N301        N302   1.318       .  A
N301       N1327   1.315       .  A
N301       Mn330   2.196       .  S
N302       C1329   1.354       .  A
N303       N1325   1.314   1_455  A
N303        N304   1.320       .  A
N303       Mn319   2.202       .  S
N304       C1330   1.353   1_455  A
N305       N1323   1.314       .  A
N305        N306   1.321       .  A
N305       Mn330   2.199       .  S
N306        C310   1.354       .  A
N307       N1321   1.315   1_455  A
N307        N308   1.319       .  A
N307       Mn319   2.201       .  S
N308        C309   1.353   1_455  A
C309       N1322   1.354       .  A
C309        C502   1.484       .  S
C310       N1324   1.353       .  A
C310        C495   1.484       .  S
N311        N312   1.318       .  A
N311       Mn341   2.189       .  S
N312        C320   1.351       .  A
N313        N314   1.321       .  A
N313       Mn319   2.203       .  S
N315        N316   1.319       .  A
N315       Mn341   2.199       .  S
N316        C321   1.355   1_556  A
N317        N318   1.317       .  A
N317       Mn319   2.196       .  S
Mn319     Cl1108   2.541   1_455  S
C320        C412   1.478       .  S
C321        C425   1.489       .  S
N322        N323   1.317       .  A
N322       Mn330   2.191       .  S
N324        N325   1.318       .  A
N324       Mn342   2.196       .  S
N325        C332   1.351       .  A
N326        N327   1.321       .  A
N326       Mn330   2.199       .  S
N328        N329   1.320       .  A
N328       Mn342   2.195       .  S
N329        C331   1.352       .  A
C331        C395   1.467       .  S
C332        C402   1.484       .  S
N333        N334   1.321       .  A
N333       N1359   1.315   1_455  A
N333       Mn341   2.203       .  S
N334        C344   1.357   1_455  A
N335        N336   1.322       .  A
N335       N1357   1.313       .  A
N335       Mn342   2.199       .  S
N336        C345   1.356       .  A
N337       N1355   1.313   1_455  A
N337        N338   1.317       .  A
N337       Mn341   2.191       .  S
N338       C1365   1.350   1_455  A
N339       N1353   1.315       .  A
N339        N340   1.316       .  A
N339       Mn342   2.193       .  S
N340       C1364   1.350       .  A
Mn341     Cl1363   2.548   1_455  S
Mn342      Cl343   2.540       .  S
Cl343     Mn1084   2.541   1_556  S
Cl343     Mn1361   2.548       .  S
C344       N1360   1.350       .  A
C344        C472   1.484       .  S
C345       N1358   1.350       .  A
C345        C485   1.480       .  S
N346        N347   1.320       .  A
N346       Mn375   2.192       .  S
N347        C354   1.352       .  A
N348        N349   1.316       .  A
N348       Mn364   2.191       .  S
N350        N351   1.321       .  A
N350       Mn375   2.195       .  S
N351        C355   1.355       .  A
N352        N353   1.316       .  A
N352       Mn364   2.183       .  S
C354        C392   1.466       .  S
C355        C415   1.481       .  S
N356        N872   1.315   1_545  A
N356        N357   1.321       .  A
N356       Mn386   2.210       .  S
N357        C365   1.356   1_545  A
N358        N359   1.322       .  A
N358        N870   1.314       .  A
N358       Mn364   2.195       .  S
N359        C366   1.354       .  A
N360        N868   1.314   1_545  A
N360        N361   1.316       .  A
N360       Mn386   2.198       .  S
N361        C876   1.352   1_545  A
N362        N866   1.315       .  A
N362        N363   1.317       .  A
N362       Mn364   2.183       .  S
N363        C875   1.349       .  A
C365        N873   1.349       .  A
C365        C455   1.477       .  S
C366        N871   1.352       .  A
C366        C465   1.481       .  S
N367        N368   1.319       .  A
N367        N883   1.315       .  A
N367       Mn375   2.193       .  S
N368        C886   1.352       .  A
N369        N881   1.313   1_545  A
N369        N370   1.319       .  A
N369       Mn387   2.198       .  S
N370        C887   1.355   1_545  A
N371        N879   1.313       .  A
N371        N372   1.318       .  A
N371       Mn375   2.187       .  S
N372        C377   1.352       .  A
N373        N877   1.315   1_545  A
N373        N374   1.320       .  A
N373       Mn387   2.203       .  S
N374        C376   1.354       .  A
Mn375      Cl388   2.548       .  S
C376        N878   1.352   1_545  A
C376        C445   1.476       .  S
C377        N880   1.355       .  A
C377        C432   1.482       .  S
N378        N379   1.320       .  A
N378       Mn386   2.201       .  S
N380        N381   1.317       .  A
N380       Mn387   2.200       .  S
N381        C390   1.351       .  A
N382        N383   1.323       .  A
N382       Mn386   2.209       .  S
N384        N385   1.318       .  A
N384       Mn387   2.195       .  S
N385        C389   1.354   1_556  A
Mn386      Cl643   2.546   1_545  S
Mn387      Cl898   2.536   1_545  S
Cl388      Mn641   2.546   1_556  S
Cl388      Mn897   2.536       .  S
C389        C405   1.484       .  S
C390        C422   1.490       .  S
C391        C392   1.403       .  A
C391        C396   1.399       .  A
C391        H398   1.082       .  S
C393        C394   1.391       .  A
C393       Br400   1.922       .  S
C394        H399   1.081       .  S
C395        C396   1.409       .  A
C396       Br397   1.918       .  S
C401        C406   1.400       .  A
C401        H408   1.087       .  S
C402        C403   1.414       .  A
C403        C404   1.396       .  A
C403       Br410   1.923       .  S
C404        C405   1.404   1_556  A
C404        H409   1.087       .  S
C406       Br407   1.922       .  S
C411        C412   1.402   1_554  A
C411        C416   1.392       .  A
C412        C413   1.413       .  A
C413        C414   1.399       .  A
C413       Br420   1.922       .  S
C414        C415   1.406       .  A
C414        H419   1.083       .  S
C415        C416   1.415   1_556  A
C421        C422   1.406   1_554  A
C421        C426   1.402       .  A
C421        H428   1.087       .  S
C422        C423   1.417       .  A
C423        C424   1.397       .  A
C423       Br430   1.923       .  S
C424        C425   1.403   1_556  A
C424        H429   1.087       .  S
C425        C426   1.415       .  A
C431        C432   1.405       .  A
C431        C436   1.397       .  A
C431        H438   1.083       .  S
C432        C433   1.414       .  A
C433        C434   1.396       .  A
C433       Br950   1.924       .  S
C434        C435   1.406       .  A
C434        H949   1.081       .  S
C435        C436   1.413       .  A
C436       Br437   1.922       .  S
H439        C944   1.081       .  S
Br440       C943   1.924       .  S
C441        C442   1.403       .  A
C441        C956   1.399       .  A
C441        H448   1.085       .  S
C442        C443   1.414       .  A
C443        C954   1.399       .  A
C443       Br450   1.921       .  S
C444        C953   1.399       .  A
C444        C445   1.402       .  A
C444        H449   1.085       .  S
C445        C446   1.410   1_545  A
C446        C951   1.399       .  A
C446       Br447   1.920       .  S
C451        C962   1.403       .  A
C451        C456   1.396       .  A
C451        H458   1.088       .  S
C452        C961   1.403       .  A
C452        C453   1.410   1_565  A
C453        C454   1.397       .  A
C453       Br460   1.921       .  S
C454        C455   1.403   1_545  A
C454        H459   1.088       .  S
C455        C966   1.414       .  A
C456        C965   1.414       .  A
C456       Br457   1.922       .  S
C461        C972   1.407       .  A
C461        C466   1.401       .  A
C461        H468   1.081       .  S
C462        C971   1.407   1_545  A
C462        C463   1.412       .  A
C463        C464   1.393       .  A
C463       Br470   1.922       .  S
C464        C975   1.404   1_545  A
C464        H469   1.081       .  S
C465        C974   1.404       .  A
C465        C466   1.412       .  A
C466       Br467   1.921       .  S
C471        C472   1.405   1_455  A
C471        C476   1.399       .  A
C471        H478   1.087       .  S
C472       C1493   1.416       .  A
C473       C1492   1.416       .  A
C473        C474   1.394       .  A
C473       Br480   1.923       .  S
C474        C475   1.403       .  A
C474        H479   1.087       .  S
C475       C1496   1.415       .  A
C476       C1495   1.415       .  A
C476       Br477   1.922       .  S
C481       C1502   1.402   1_455  A
C481        C486   1.394       .  A
C481        H488   1.084       .  S
C482       C1501   1.402       .  A
C482        C483   1.414       .  A
C483        C484   1.400       .  A
C483       Br490   1.921       .  S
C484        C485   1.404       .  A
C484        H489   1.082       .  S
C485       C1506   1.413       .  A
C486       C1505   1.413   1_455  A
C486       Br487   1.921       .  S
C491        C492   1.405   1_455  A
C491        C496   1.401       .  A
C491        H498   1.084       .  S
C492       C1513   1.415       .  A
C493       C1512   1.415       .  A
C493        C494   1.400       .  A
C493       Br500   1.922       .  S
C494        C495   1.404       .  A
C494        H499   1.084       .  S
C495       C1516   1.412       .  A
C496       C1515   1.412   1_455  A
C496       Br497   1.921       .  S
C501       C1522   1.405       .  A
C501        C506   1.397       .  A
C501        H508   1.083       .  S
C502       C1521   1.405       .  A
C502        C503   1.414   1_655  A
C503        C504   1.397       .  A
C503       Br510   1.918       .  S
C504        C505   1.405   1_455  A
C504        H509   1.083       .  S
C505       C1526   1.415       .  A
C506       C1525   1.415       .  A
C506       Br507   1.921       .  S
N511        N512   1.318       .  A
N511       Mn540   2.194       .  S
N513        N514   1.320       .  A
N513       Mn529   2.196       .  S
N515        N516   1.322       .  A
N515       Mn540   2.212       .  S
N516        C520   1.355   1_565  A
N517        N518   1.319       .  A
N517       Mn529   2.199       .  S
N518        C519   1.353       .  A
C519        C707   1.476       .  S
C520        C697   1.480       .  S
N521       N1547   1.314       .  A
N521        N522   1.318       .  A
N521       Mn551   2.195       .  S
N522        C530   1.354       .  A
N523        N524   1.319       .  A
N523       N1545   1.314   1_455  A
N523       Mn529   2.197       .  S
N524        C531   1.355   1_455  A
N525       N1543   1.314       .  A
N525        N526   1.319       .  A
N525       Mn551   2.194       .  S
N526       C1551   1.352       .  A
N527       N1541   1.314   1_455  A
N527        N528   1.319       .  A
N527       Mn529   2.198       .  S
N528       C1550   1.352       .  A
Mn529      Cl553   2.545   1_455  S
C530       N1548   1.352       .  A
C530        C730   1.483       .  S
C531       N1546   1.352       .  A
C531        C760   1.484       .  S
N532        N533   1.319       .  A
N532       N1558   1.314   1_455  A
N532       Mn540   2.203       .  S
N533       C1561   1.355   1_455  A
N534       N1556   1.314       .  A
N534        N535   1.319       .  A
N534       Mn552   2.192       .  S
N535       C1562   1.352       .  A
N536       N1554   1.314   1_455  A
N536        N537   1.322       .  A
N536       Mn540   2.214       .  S
N537        C542   1.356   1_455  A
N538       N1552   1.314       .  A
N538        N539   1.319       .  A
N538       Mn552   2.188       .  S
N539        C541   1.351       .  A
C541       N1553   1.355       .  A
C541        C737   1.479       .  S
C542       N1555   1.352       .  A
C542        C747   1.485       .  S
N543        N544   1.318       .  A
N543       Mn551   2.197       .  S
N544        C554   1.352       .  A
N545        N546   1.317       .  A
N545       Mn552   2.187       .  S
N546        C555   1.353   1_565  A
N547        N548   1.320       .  A
N547       Mn551   2.200       .  S
N549        N550   1.320       .  A
N549       Mn552   2.193       .  S
Mn551     Cl1573   2.543       .  S
Mn552     Cl1063   2.544   1_565  S
Cl553     Mn1571   2.543       .  S
Cl553     Mn1062   2.544       .  S
C554        C717   1.480       .  S
C555        C690   1.484       .  S
N556        N557   1.318       .  A
N556       N1582   1.315       .  A
N556       Mn585   2.196       .  S
N557       C1584   1.354       .  A
N558       N1580   1.314   1_455  A
N558        N559   1.320       .  A
N558       Mn574   2.203       .  S
N559       C1585   1.353   1_455  A
N560       N1578   1.314       .  A
N560        N561   1.321       .  A
N560       Mn585   2.199       .  S
N561        C565   1.354       .  A
N562       N1576   1.315   1_455  A
N562        N563   1.319       .  A
N562       Mn574   2.201       .  S
N563        C564   1.353   1_455  A
C564       N1577   1.354       .  A
C564        C757   1.484       .  S
C565       N1579   1.353       .  A
C565        C750   1.484       .  S
N566        N827   1.315       .  A
N566        N567   1.318       .  A
N566       Mn596   2.189       .  S
N567        C575   1.351       .  A
N568        N569   1.321       .  A
N568        N825   1.315   1_554  A
N568       Mn574   2.203       .  S
N569        C831   1.353       .  A
N570        N823   1.315       .  A
N570        N571   1.319       .  A
N570       Mn596   2.199       .  S
N571        C576   1.355       .  A
N572        N821   1.315   1_554  A
N572        N573   1.317       .  A
N572       Mn574   2.196       .  S
N573        C830   1.354   1_554  A
Mn574     Cl1873   2.541   1_454  S
C575        N828   1.354       .  A
C575        C667   1.478       .  S
C576        N824   1.353       .  A
C576        C680   1.489       .  S
N577        N578   1.317       .  A
N577        N838   1.316   1_554  A
N577       Mn585   2.191       .  S
N578        C841   1.351   1_554  A
N579        N836   1.314       .  A
N579        N580   1.318       .  A
N579       Mn597   2.196       .  S
N580        C587   1.351       .  A
N581        N834   1.314   1_554  A
N581        N582   1.321       .  A
N581       Mn585   2.199       .  S
N582        C842   1.355   1_554  A
N583        N832   1.316       .  A
N583        N584   1.320       .  A
N583       Mn597   2.195       .  S
N584        C586   1.352       .  A
Mn585      Cl853   2.549   1_554  S
C586        N833   1.351       .  A
C586        C650   1.467       .  S
C587        N837   1.355       .  A
C587        C657   1.484       .  S
N588        N589   1.321       .  A
N588       N1614   1.315   1_455  A
N588       Mn596   2.203       .  S
N589        C599   1.356   1_455  A
N590        N591   1.322       .  A
N590       N1612   1.313       .  A
N590       Mn597   2.199       .  S
N591        C600   1.356       .  A
N592       N1610   1.313   1_455  A
N592        N593   1.317       .  A
N592       Mn596   2.191       .  S
N593       C1620   1.350   1_455  A
N594       N1608   1.315       .  A
N594        N595   1.316       .  A
N594       Mn597   2.193       .  S
N595       C1619   1.350       .  A
Mn596     Cl1618   2.548   1_455  S
Mn597      Cl598   2.540       .  S
Cl598     Mn1849   2.541       .  S
Cl598      Mn840   2.549       .  S
Cl598     Mn1616   2.548       .  S
C599       N1615   1.350       .  A
C599        C727   1.484       .  S
C600       N1613   1.350       .  A
C600        C740   1.480       .  S
N601        N602   1.320       .  A
N601        N862   1.314       .  A
N601       Mn630   2.192       .  S
N602        C609   1.352       .  A
N603        N860   1.313   1_554  A
N603        N604   1.316       .  A
N603       Mn619   2.191       .  S
N604        C865   1.350   1_554  A
N605        N858   1.313       .  A
N605        N606   1.321       .  A
N605       Mn630   2.195       .  S
N606        C610   1.355       .  A
N607        N856   1.314   1_554  A
N607        N608   1.316       .  A
N607       Mn619   2.183       .  S
N608        C864   1.350   1_554  A
C609        N863   1.350       .  A
C609        C647   1.466       .  S
C610        N859   1.350       .  A
C610        C670   1.481       .  S
N611        N612   1.321       .  A
N611       Mn641   2.210       .  S
N612        C620   1.356       .  A
N613        N614   1.322       .  A
N613       Mn619   2.196       .  S
N614        C621   1.354       .  A
N615        N616   1.316       .  A
N615       Mn641   2.198       .  S
N617        N618   1.317       .  A
N617       Mn619   2.183       .  S
Mn619      Cl898   2.539   1_554  S
C620        C710   1.477       .  S
C621        C720   1.481       .  S
N622        N623   1.319       .  A
N622       Mn630   2.193       .  S
N624        N625   1.319       .  A
N624       Mn642   2.198       .  S
N626        N627   1.318       .  A
N626       Mn630   2.187       .  S
N627        C632   1.352       .  A
N628        N629   1.320       .  A
N628       Mn642   2.203       .  S
N629        C631   1.354       .  A
Mn630      Cl643   2.548       .  S
C631        C700   1.476       .  S
C632        C687   1.482       .  S
N633        N634   1.320       .  A
N633        N894   1.314   1_554  A
N633       Mn641   2.201       .  S
N634        C899   1.353       .  A
N635        N636   1.317       .  A
N635        N892   1.316       .  A
N635       Mn642   2.200       .  S
N636        C645   1.351       .  A
N637        N890   1.316   1_554  A
N637        N638   1.323       .  A
N637       Mn641   2.209       .  S
N638        C900   1.357   1_554  A
N639        N888   1.314       .  A
N639        N640   1.318       .  A
N639       Mn642   2.195       .  S
N640        C644   1.354       .  A
Cl643      Mn874   2.539       .  S
C644        N889   1.353       .  A
C644        C660   1.484       .  S
C645        N893   1.357       .  A
C645        C677   1.490       .  S
C646        C647   1.403       .  A
C646        C651   1.399       .  A
C646        H653   1.082       .  S
C647        C903   1.409       .  A
C648        C902   1.409   1_554  A
C648        C649   1.391       .  A
C648       Br655   1.922       .  S
C649        C905   1.400   1_554  A
C649        H654   1.081       .  S
C650        C904   1.400       .  A
C650        C651   1.409       .  A
C651       Br652   1.918       .  S
C656        C912   1.405   1_554  A
C656        C661   1.400       .  A
C656        H663   1.087       .  S
C657        C911   1.405       .  A
C657        C658   1.414       .  A
C658        C659   1.396       .  A
C658       Br665   1.923       .  S
C659        C660   1.404       .  A
C659        H664   1.087       .  S
C660        C916   1.414       .  A
C661        C915   1.414       .  A
C661       Br662   1.922       .  S
C666        C667   1.402       .  A
C666        C671   1.392       .  A
C666        H928   1.085       .  S
C667        C668   1.413       .  A
C668        C669   1.399       .  A
C668       Br675   1.922       .  S
C669        C670   1.406       .  A
C669        H674   1.083       .  S
C670        C671   1.415       .  A
C671       Br927   1.922       .  S
Br672       C926   1.922       .  S
H673        C921   1.085       .  S
C676        C677   1.406       .  A
C676        C681   1.402       .  A
C676        H683   1.087       .  S
C677        C678   1.417       .  A
C678        C679   1.397       .  A
C678       Br685   1.923       .  S
C679        C680   1.403       .  A
C679        H684   1.087       .  S
C680        C681   1.415       .  A
C681       Br937   1.920       .  S
Br682       C936   1.920       .  S
C686        C687   1.405   1_545  A
C686        C691   1.397       .  A
C686        H693   1.083       .  S
C687        C688   1.414       .  A
C688        C689   1.396       .  A
C689        C690   1.406   1_565  A
C690        C691   1.413       .  A
C691       Br692   1.922       .  S
C696        C697   1.403   1_565  A
C696        H703   1.085       .  S
C697        C698   1.414       .  A
C698       Br705   1.921       .  S
C699        C700   1.402       .  A
C699        H704   1.085       .  S
C700        C701   1.410       .  A
C701       Br702   1.920       .  S
C706        C711   1.396       .  A
C706        H713   1.088       .  S
C707        C708   1.410       .  A
C708        C709   1.397       .  A
C708       Br715   1.921       .  S
C709        C710   1.403       .  A
C709        H714   1.088       .  S
C711       Br712   1.922       .  S
C716        C721   1.401       .  A
C716        H723   1.081       .  S
C717        C718   1.412       .  A
C718        C719   1.393       .  A
C718       Br725   1.922       .  S
C719        H724   1.081       .  S
C720        C721   1.412       .  A
C721       Br722   1.921       .  S
C726        C727   1.405   1_455  A
C726        C731   1.399       .  A
C726        H733   1.087       .  S
C727       C1748   1.416       .  A
C728       C1747   1.416       .  A
C728        C729   1.394       .  A
C728       Br735   1.923       .  S
C729        C730   1.403       .  A
C729        H734   1.087       .  S
C730       C1751   1.415       .  A
C731       C1750   1.415       .  A
C731       Br732   1.922       .  S
C736       C1757   1.402   1_455  A
C736        C741   1.394       .  A
C736        H743   1.084       .  S
C737       C1756   1.402       .  A
C737        C738   1.414       .  A
C738        C739   1.400       .  A
C738       Br745   1.921       .  S
C739        C740   1.404       .  A
C739        H744   1.082       .  S
C740       C1761   1.413       .  A
C741       C1760   1.413   1_455  A
C741       Br742   1.921       .  S
C746        C747   1.405   1_455  A
C746        C751   1.401       .  A
C746        H753   1.084       .  S
C747       C1768   1.415       .  A
C748       C1767   1.415       .  A
C748        C749   1.400       .  A
C748       Br755   1.922       .  S
C749        C750   1.404       .  A
C749        H754   1.084       .  S
C750       C1771   1.412       .  A
C751       C1770   1.412   1_455  A
C751       Br752   1.921       .  S
C756       C1777   1.405       .  A
C756        C761   1.397       .  A
C756        H763   1.083       .  S
C757       C1776   1.405       .  A
C757        C758   1.414   1_655  A
C758        C759   1.397       .  A
C758       Br765   1.918       .  S
C759        C760   1.405   1_455  A
C759        H764   1.083       .  S
C760       C1781   1.415       .  A
C761       C1780   1.415       .  A
C761       Br762   1.921       .  S
N766        N767   1.318       .  A
N766       Mn795   2.195       .  S
N768        N769   1.320       .  A
N768       Mn784   2.196       .  S
N770        N771   1.322       .  A
N770       Mn795   2.212       .  S
N771        C775   1.355   1_565  A
N772        N773   1.319       .  A
N772       Mn784   2.198       .  S
N773        C774   1.353       .  A
C774        C962   1.476       .  S
C775        C952   1.480       .  S
N776       N1802   1.314       .  A
N776        N777   1.317       .  A
N776       Mn806   2.195       .  S
N777        C785   1.354       .  A
N778        N779   1.319       .  A
N778       N1800   1.314   1_455  A
N778       Mn784   2.197       .  S
N779        C786   1.355   1_455  A
N780       N1798   1.314       .  A
N780        N781   1.319       .  A
N780       Mn806   2.194       .  S
N781       C1806   1.352       .  A
N782       N1796   1.314   1_455  A
N782        N783   1.320       .  A
N782       Mn784   2.197       .  S
N783       C1805   1.352       .  A
Mn784      Cl808   2.546   1_455  S
C785       N1803   1.352       .  A
C785        C985   1.483       .  S
C786       N1801   1.352       .  A
C786       C1015   1.485       .  S
N787        N788   1.319       .  A
N787       N1813   1.314   1_455  A
N787       Mn795   2.204       .  S
N788       C1816   1.356   1_455  A
N789       N1811   1.314       .  A
N789        N790   1.319       .  A
N789       Mn807   2.192       .  S
N790       C1817   1.352       .  A
N791       N1809   1.314   1_455  A
N791        N792   1.322       .  A
N791       Mn795   2.213       .  S
N792        C797   1.356   1_455  A
N793       N1807   1.314       .  A
N793        N794   1.319       .  A
N793       Mn807   2.189       .  S
N794        C796   1.351       .  A
C796       N1808   1.356       .  A
C796        C992   1.479       .  S
C797       N1810   1.352       .  A
C797       C1002   1.485       .  S
N798        N799   1.318       .  A
N798       Mn806   2.197       .  S
N799        C809   1.352       .  A
N800        N801   1.317       .  A
N800       Mn807   2.187       .  S
N801        C810   1.353   1_565  A
N802        N803   1.320       .  A
N802       Mn806   2.200       .  S
N804        N805   1.320       .  A
N804       Mn807   2.193       .  S
Mn806     Cl1828   2.542       .  S
Mn807     Cl1318   2.544   1_565  S
Cl808     Mn1826   2.542       .  S
Cl808     Mn1317   2.544       .  S
C809        C972   1.480       .  S
C810        C945   1.484       .  S
N811        N812   1.318       .  A
N811       N1837   1.315       .  A
N811       Mn840   2.197       .  S
N812       C1839   1.354       .  A
N813       N1835   1.314   1_455  A
N813        N814   1.320       .  A
N813       Mn829   2.202       .  S
N814       C1840   1.353   1_455  A
N815       N1833   1.314       .  A
N815        N816   1.321       .  A
N815       Mn840   2.199       .  S
N816        C820   1.354       .  A
N817       N1831   1.315   1_455  A
N817        N818   1.319       .  A
N817       Mn829   2.201       .  S
N818        C819   1.353   1_455  A
C819       N1832   1.354       .  A
C819       C1012   1.484       .  S
C820       N1834   1.353       .  A
C820       C1005   1.484       .  S
N821        N822   1.318       .  A
N821       Mn851   2.189       .  S
N822        C830   1.351       .  A
N823        N824   1.321       .  A
N823       Mn829   2.203       .  S
N825        N826   1.319       .  A
N825       Mn851   2.199       .  S
N826        C831   1.355   1_556  A
N827        N828   1.317       .  A
N827       Mn829   2.196       .  S
Mn829     Cl1618   2.541   1_455  S
C830        C922   1.478       .  S
C831        C935   1.489       .  S
N832        N833   1.317       .  A
N832       Mn840   2.192       .  S
N834        N835   1.318       .  A
N834       Mn852   2.196       .  S
N835        C842   1.351       .  A
N836        N837   1.321       .  A
N836       Mn840   2.199       .  S
N838        N839   1.320       .  A
N838       Mn852   2.195       .  S
N839        C841   1.352       .  A
C841        C905   1.467       .  S
C842        C912   1.484       .  S
N843        N844   1.321       .  A
N843       N1869   1.315   1_455  A
N843       Mn851   2.203       .  S
N844        C854   1.357   1_455  A
N845        N846   1.322       .  A
N845       N1867   1.313       .  A
N845       Mn852   2.199       .  S
N846        C855   1.356       .  A
N847       N1865   1.313   1_455  A
N847        N848   1.318       .  A
N847       Mn851   2.191       .  S
N848       C1875   1.350   1_455  A
N849       N1863   1.315       .  A
N849        N850   1.316       .  A
N849       Mn852   2.193       .  S
N850       C1874   1.350       .  A
Mn851     Cl1873   2.548   1_455  S
Mn852      Cl853   2.540       .  S
Cl853     Mn1594   2.541   1_556  S
Cl853     Mn1871   2.548       .  S
C854       N1870   1.350       .  A
C854        C982   1.484       .  S
C855       N1868   1.350       .  A
C855        C995   1.480       .  S
N856        N857   1.320       .  A
N856       Mn885   2.192       .  S
N857        C864   1.352       .  A
N858        N859   1.316       .  A
N858       Mn874   2.191       .  S
N860        N861   1.321       .  A
N860       Mn885   2.195       .  S
N861        C865   1.355       .  A
N862        N863   1.316       .  A
N862       Mn874   2.183       .  S
C864        C902   1.466       .  S
C865        C925   1.481       .  S
N866        N867   1.321       .  A
N866       Mn896   2.210       .  S
N867        C875   1.356       .  A
N868        N869   1.322       .  A
N868       Mn874   2.196       .  S
N869        C876   1.354       .  A
N870        N871   1.316       .  A
N870       Mn896   2.198       .  S
N872        N873   1.317       .  A
N872       Mn874   2.183       .  S
C875        C965   1.476       .  S
C876        C975   1.481       .  S
N877        N878   1.319       .  A
N877       Mn885   2.193       .  S
N879        N880   1.319       .  A
N879       Mn897   2.198       .  S
N881        N882   1.318       .  A
N881       Mn885   2.187       .  S
N882        C887   1.352       .  A
N883        N884   1.320       .  A
N883       Mn897   2.203       .  S
N884        C886   1.354       .  A
Mn885      Cl898   2.548       .  S
C886        C955   1.476       .  S
C887        C942   1.482       .  S
N888        N889   1.320       .  A
N888       Mn896   2.201       .  S
N890        N891   1.317       .  A
N890       Mn897   2.199       .  S
N891        C900   1.350       .  A
N892        N893   1.323       .  A
N892       Mn896   2.209       .  S
N894        N895   1.318       .  A
N894       Mn897   2.195       .  S
N895        C899   1.354   1_556  A
C899        C915   1.484       .  S
C900        C932   1.490       .  S
C901        C902   1.403       .  A
C901        C906   1.399       .  A
C901        H908   1.082       .  S
C903        C904   1.391       .  A
C903       Br910   1.922       .  S
C904        H909   1.081       .  S
C905        C906   1.409       .  A
C906       Br907   1.918       .  S
C911        C916   1.400       .  A
C911        H918   1.087       .  S
C912        C913   1.414       .  A
C913        C914   1.396       .  A
C913       Br920   1.923       .  S
C914        C915   1.404   1_556  A
C914        H919   1.087       .  S
C916       Br917   1.922       .  S
C921        C922   1.402   1_554  A
C921        C926   1.392       .  A
C922        C923   1.413       .  A
C923        C924   1.399       .  A
C923       Br930   1.922       .  S
C924        C925   1.406       .  A
C924        H929   1.083       .  S
C925        C926   1.415   1_556  A
C931        C932   1.406   1_554  A
C931        C936   1.402       .  A
C931        H938   1.087       .  S
C932        C933   1.417       .  A
C933        C934   1.397       .  A
C933       Br940   1.923       .  S
C934        C935   1.403   1_556  A
C934        H939   1.087       .  S
C935        C936   1.415       .  A
C941        C942   1.405   1_545  A
C941        C946   1.397       .  A
C941        H948   1.083       .  S
C942        C943   1.414       .  A
C943        C944   1.397       .  A
C944        C945   1.406   1_565  A
C945        C946   1.413       .  A
C946       Br947   1.922       .  S
C951        C952   1.403   1_565  A
C951        H958   1.085       .  S
C952        C953   1.414       .  A
C953       Br960   1.921       .  S
C954        C955   1.402       .  A
C954        H959   1.085       .  S
C955        C956   1.410       .  A
C956       Br957   1.920       .  S
C961        C966   1.396       .  A
C961        H968   1.088       .  S
C962        C963   1.410       .  A
C963        C964   1.397       .  A
C963       Br970   1.921       .  S
C964        C965   1.403       .  A
C964        H969   1.088       .  S
C966       Br967   1.922       .  S
C971        C976   1.401       .  A
C971        H978   1.081       .  S
C972        C973   1.412       .  A
C973        C974   1.393       .  A
C973       Br980   1.922       .  S
C974        H979   1.081       .  S
C975        C976   1.412       .  A
C976       Br977   1.921       .  S
C981        C982   1.405   1_455  A
C981        C986   1.399       .  A
C981        H988   1.087       .  S
C982       C2003   1.416       .  A
C983       C2002   1.416       .  A
C983        C984   1.394       .  A
C983       Br990   1.923       .  S
C984        C985   1.403       .  A
C984        H989   1.087       .  S
C985       C2006   1.415       .  A
C986       C2005   1.415       .  A
C986       Br987   1.922       .  S
C991       C2012   1.402   1_455  A
C991        C996   1.394       .  A
C991        H998   1.084       .  S
C992       C2011   1.402       .  A
C992        C993   1.414       .  A
C993        C994   1.400       .  A
C993      Br1000   1.921       .  S
C994        C995   1.404       .  A
C994        H999   1.082       .  S
C995       C2016   1.413       .  A
C996       C2015   1.413   1_455  A
C996       Br997   1.921       .  S
C1001      C1002   1.405   1_455  A
C1001      C1006   1.401       .  A
C1001      H1008   1.084       .  S
C1002      C2023   1.415       .  A
C1003      C2022   1.415       .  A
C1003      C1004   1.400       .  A
C1003     Br1010   1.922       .  S
C1004      C1005   1.404       .  A
C1004      H1009   1.084       .  S
C1005      C2026   1.412       .  A
C1006      C2025   1.412   1_455  A
C1006     Br1007   1.921       .  S
C1011      C2032   1.405       .  A
C1011      C1016   1.397       .  A
C1011      H1018   1.083       .  S
C1012      C2031   1.405       .  A
C1012      C1013   1.414   1_655  A
C1013      C1014   1.397       .  A
C1013     Br1020   1.918       .  S
C1014      C1015   1.405   1_455  A
C1014      H1019   1.083       .  S
C1015      C2036   1.415       .  A
C1016      C2035   1.415       .  A
C1016     Br1017   1.921       .  S
N1021      N1022   1.318       .  A
N1021      N1537   1.315       .  A
N1021     Mn1050   2.194       .  S
N1022      C1539   1.353       .  A
N1023      N1535   1.315   1_545  A
N1023      N1024   1.320       .  A
N1023     Mn1039   2.196       .  S
N1024      C1540   1.352       .  A
N1025      N1533   1.315       .  A
N1025      N1026   1.321       .  A
N1025     Mn1050   2.212       .  S
N1026      C1030   1.355       .  A
N1027      N1531   1.315   1_545  A
N1027      N1028   1.319       .  A
N1027     Mn1039   2.198       .  S
N1028      C1029   1.353   1_545  A
C1029      N1532   1.353       .  A
C1029      C1217   1.475       .  S
C1030      N1534   1.352       .  A
C1030      C1207   1.480       .  S
N1031      N1032   1.317       .  A
N1031     Mn1061   2.195       .  S
N1032      C1040   1.354   1_655  A
N1033      N1034   1.319       .  A
N1033     Mn1039   2.197       .  S
N1034      C1041   1.355       .  A
N1035      N1036   1.319       .  A
N1035     Mn1061   2.194       .  S
N1037      N1038   1.319       .  A
N1037     Mn1039   2.197       .  S
Mn1039    Cl1063   2.545       .  S
C1040      C1240   1.483       .  S
C1041      C1270   1.484       .  S
N1042      N1043   1.319       .  A
N1042     Mn1050   2.203       .  S
N1044      N1045   1.319       .  A
N1044     Mn1062   2.192       .  S
N1046      N1047   1.322       .  A
N1046     Mn1050   2.213       .  S
N1047      C1052   1.356       .  A
N1048      N1049   1.319       .  A
N1048     Mn1062   2.189       .  S
N1049      C1051   1.351       .  A
Mn1050    Cl1573   2.542       .  S
C1051      C1247   1.479       .  S
C1052      C1257   1.485       .  S
N1053      N1054   1.318       .  A
N1053      N1569   1.314   1_545  A
N1053     Mn1061   2.197       .  S
N1054      C1064   1.352       .  A
N1055      N1056   1.317       .  A
N1055      N1567   1.313       .  A
N1055     Mn1062   2.187       .  S
N1056      C1065   1.353       .  A
N1057      N1565   1.313   1_545  A
N1057      N1058   1.320       .  A
N1057     Mn1061   2.200       .  S
N1058      C1575   1.354       .  A
N1059      N1563   1.314       .  A
N1059      N1060   1.320       .  A
N1059     Mn1062   2.193       .  S
N1060      C1574   1.354       .  A
Cl1063    Mn1560   2.542   1_545  S
C1064      N1570   1.354   1_545  A
C1064      C1227   1.480       .  S
C1065      N1568   1.354       .  A
C1065      C1200   1.484       .  S
N1066      N1067   1.318       .  A
N1066     Mn1095   2.196       .  S
N1068      N1069   1.320       .  A
N1068     Mn1084   2.203       .  S
N1070      N1071   1.321       .  A
N1070     Mn1095   2.199       .  S
N1071      C1075   1.354       .  A
N1072      N1073   1.319       .  A
N1072     Mn1084   2.201       .  S
N1073      C1074   1.353       .  A
C1074      C1267   1.484       .  S
C1075      C1260   1.485       .  S
N1076      N1337   1.315       .  A
N1076      N1077   1.318       .  A
N1076     Mn1106   2.188       .  S
N1077      C1085   1.351       .  A
N1078      N1079   1.321       .  A
N1078      N1335   1.315   1_554  A
N1078     Mn1084   2.204       .  S
N1079      C1341   1.353       .  A
N1080      N1333   1.315       .  A
N1080      N1081   1.319       .  A
N1080     Mn1106   2.199       .  S
N1081      C1086   1.355       .  A
N1082      N1331   1.315   1_554  A
N1082      N1083   1.317       .  A
N1082     Mn1084   2.196       .  S
N1083      C1340   1.354   1_554  A
C1085      N1338   1.354       .  A
C1085      C1177   1.478       .  S
C1086      N1334   1.353       .  A
C1086      C1190   1.489       .  S
N1087      N1088   1.317       .  A
N1087      N1348   1.316   1_554  A
N1087     Mn1095   2.191       .  S
N1088      C1351   1.351   1_554  A
N1089      N1346   1.314       .  A
N1089      N1090   1.318       .  A
N1089     Mn1107   2.196       .  S
N1090      C1097   1.351       .  A
N1091      N1344   1.314   1_554  A
N1091      N1092   1.321       .  A
N1091     Mn1095   2.199       .  S
N1092      C1352   1.355   1_554  A
N1093      N1342   1.316       .  A
N1093      N1094   1.320       .  A
N1093     Mn1107   2.195       .  S
N1094      C1096   1.352       .  A
Mn1095    Cl1363   2.549   1_554  S
C1096      N1343   1.351       .  A
C1096      C1160   1.467       .  S
C1097      N1347   1.355       .  A
C1097      C1167   1.484       .  S
N1098      N1099   1.321       .  A
N1098     Mn1106   2.203       .  S
N1099      C1109   1.356       .  A
N1100      N1101   1.322       .  A
N1100     Mn1107   2.199       .  S
N1101      C1110   1.356       .  A
N1102      N1103   1.317       .  A
N1102     Mn1106   2.191       .  S
N1104      N1105   1.316       .  A
N1104     Mn1107   2.193       .  S
Mn1107    Cl1108   2.540       .  S
Cl1108    Mn1350   2.549       .  S
C1109      C1237   1.484       .  S
C1110      C1250   1.480       .  S
N1111      N1112   1.320       .  A
N1111      N1372   1.314       .  A
N1111     Mn1140   2.192       .  S
N1112      C1119   1.352       .  A
N1113      N1370   1.313   1_554  A
N1113      N1114   1.316       .  A
N1113     Mn1129   2.191       .  S
N1114      C1375   1.350   1_554  A
N1115      N1368   1.313       .  A
N1115      N1116   1.321       .  A
N1115     Mn1140   2.195       .  S
N1116      C1120   1.355       .  A
N1117      N1366   1.314   1_554  A
N1117      N1118   1.316       .  A
N1117     Mn1129   2.183       .  S
N1118      C1374   1.350   1_554  A
C1119      N1373   1.350       .  A
C1119      C1157   1.466       .  S
C1120      N1369   1.350       .  A
C1120      C1180   1.481       .  S
N1121      N1637   1.315   1_545  A
N1121      N1122   1.321       .  A
N1121     Mn1151   2.210       .  S
N1122      C1130   1.356   1_545  A
N1123      N1124   1.322       .  A
N1123      N1635   1.314       .  A
N1123     Mn1129   2.196       .  S
N1124      C1131   1.354       .  A
N1125      N1633   1.314   1_545  A
N1125      N1126   1.316       .  A
N1125     Mn1151   2.198       .  S
N1126      C1641   1.352   1_545  A
N1127      N1631   1.315       .  A
N1127      N1128   1.317       .  A
N1127     Mn1129   2.183       .  S
N1128      C1640   1.349       .  A
Mn1129    Cl1408   2.539   1_554  S
C1130      N1638   1.349       .  A
C1130      C1220   1.476       .  S
C1131      N1636   1.352       .  A
C1131      C1230   1.481       .  S
N1132      N1133   1.319       .  A
N1132      N1648   1.315       .  A
N1132     Mn1140   2.193       .  S
N1133      C1651   1.352       .  A
N1134      N1646   1.313   1_545  A
N1134      N1135   1.319       .  A
N1134     Mn1152   2.198       .  S
N1135      C1652   1.355   1_545  A
N1136      N1644   1.313       .  A
N1136      N1137   1.318       .  A
N1136     Mn1140   2.187       .  S
N1137      C1142   1.352       .  A
N1138      N1642   1.315   1_545  A
N1138      N1139   1.320       .  A
N1138     Mn1152   2.203       .  S
N1139      C1141   1.354       .  A
Mn1140    Cl1153   2.548       .  S
C1141      N1643   1.352   1_545  A
C1141      C1210   1.476       .  S
C1142      N1645   1.355       .  A
C1142      C1197   1.482       .  S
N1143      N1144   1.320       .  A
N1143      N1404   1.314   1_554  A
N1143     Mn1151   2.201       .  S
N1144      C1409   1.353       .  A
N1145      N1146   1.317       .  A
N1145      N1402   1.316       .  A
N1145     Mn1152   2.199       .  S
N1146      C1155   1.350       .  A
N1147      N1400   1.316   1_554  A
N1147      N1148   1.323       .  A
N1147     Mn1151   2.209       .  S
N1148      C1410   1.357   1_554  A
N1149      N1398   1.314       .  A
N1149      N1150   1.318       .  A
N1149     Mn1152   2.195       .  S
N1150      C1154   1.354       .  A
Mn1151    Cl1918   2.546   1_544  S
Mn1152    Cl1663   2.536   1_545  S
Cl1153    Mn1384   2.539       .  S
Cl1153    Mn1916   2.546       .  S
Cl1153    Mn1662   2.536       .  S
C1154      N1399   1.353       .  A
C1154      C1170   1.484       .  S
C1155      N1403   1.357       .  A
C1155      C1187   1.490       .  S
C1156      C1157   1.403       .  A
C1156      C1161   1.399       .  A
C1156      H1163   1.082       .  S
C1157      C1413   1.409       .  A
C1158      C1412   1.409   1_554  A
C1158      C1159   1.391       .  A
C1158     Br1165   1.922       .  S
C1159      C1415   1.400   1_554  A
C1159      H1164   1.081       .  S
C1160      C1414   1.400       .  A
C1160      C1161   1.409       .  A
C1161     Br1162   1.918       .  S
C1166      C1422   1.405   1_554  A
C1166      C1171   1.400       .  A
C1166      H1173   1.087       .  S
C1167      C1421   1.405       .  A
C1167      C1168   1.414       .  A
C1168      C1169   1.396       .  A
C1168     Br1175   1.923       .  S
C1169      C1170   1.404       .  A
C1169      H1174   1.087       .  S
C1170      C1426   1.414       .  A
C1171      C1425   1.414       .  A
C1171     Br1172   1.922       .  S
C1176      C1177   1.402       .  A
C1176      C1181   1.392       .  A
C1176      H1438   1.085       .  S
C1177      C1178   1.413       .  A
C1178      C1179   1.399       .  A
C1178     Br1185   1.922       .  S
C1179      C1180   1.406       .  A
C1179      H1184   1.083       .  S
C1180      C1181   1.415       .  A
C1181     Br1437   1.922       .  S
Br1182     C1436   1.922       .  S
H1183      C1431   1.085       .  S
C1186      C1187   1.406       .  A
C1186      C1191   1.402       .  A
C1186      H1193   1.087       .  S
C1187      C1188   1.417       .  A
C1188      C1189   1.397       .  A
C1188     Br1195   1.923       .  S
C1189      C1190   1.403       .  A
C1189      H1194   1.087       .  S
C1190      C1191   1.415       .  A
C1191     Br1447   1.920       .  S
Br1192     C1446   1.920       .  S
C1196      C1197   1.405       .  A
C1196      C1201   1.397       .  A
C1196      H1203   1.083       .  S
C1197      C1198   1.414       .  A
C1198      C1199   1.396       .  A
C1198     Br1715   1.924       .  S
C1199      C1200   1.406       .  A
C1199      H1714   1.081       .  S
C1200      C1201   1.413       .  A
C1201     Br1202   1.922       .  S
H1204      C1709   1.081       .  S
Br1205     C1708   1.924       .  S
C1206      C1207   1.403       .  A
C1206      C1721   1.399       .  A
C1206      H1213   1.085       .  S
C1207      C1208   1.414       .  A
C1208      C1719   1.399       .  A
C1208     Br1215   1.921       .  S
C1209      C1718   1.399       .  A
C1209      C1210   1.402       .  A
C1209      H1214   1.085       .  S
C1210      C1211   1.410   1_545  A
C1211      C1716   1.399       .  A
C1211     Br1212   1.920       .  S
C1216      C1727   1.403       .  A
C1216      C1221   1.396       .  A
C1216      H1223   1.088       .  S
C1217      C1726   1.403       .  A
C1217      C1218   1.410   1_565  A
C1218      C1219   1.397       .  A
C1218     Br1225   1.921       .  S
C1219      C1220   1.403   1_545  A
C1219      H1224   1.088       .  S
C1220      C1731   1.414       .  A
C1221      C1730   1.414       .  A
C1221     Br1222   1.923       .  S
C1226      C1737   1.407       .  A
C1226      C1231   1.401       .  A
C1226      H1233   1.081       .  S
C1227      C1736   1.407   1_545  A
C1227      C1228   1.412       .  A
C1228      C1229   1.393       .  A
C1228     Br1235   1.922       .  S
C1229      C1740   1.404   1_545  A
C1229      H1234   1.081       .  S
C1230      C1739   1.404       .  A
C1230      C1231   1.412       .  A
C1231     Br1232   1.921       .  S
C1236      C1237   1.405       .  A
C1236      C1241   1.399       .  A
C1236      H1243   1.087       .  S
C1238      C1239   1.394       .  A
C1238     Br1245   1.923       .  S
C1239      C1240   1.403   1_655  A
C1239      H1244   1.087       .  S
C1241     Br1242   1.922       .  S
C1246      C1251   1.394       .  A
C1246      H1253   1.084       .  S
C1247      C1248   1.414       .  A
C1248      C1249   1.400       .  A
C1248     Br1255   1.921       .  S
C1249      C1250   1.404       .  A
C1249      H1254   1.082       .  S
C1251     Br1252   1.921       .  S
C1256      C1257   1.405       .  A
C1256      C1261   1.401       .  A
C1256      H1263   1.084       .  S
C1258      C1259   1.400       .  A
C1258     Br1265   1.922       .  S
C1259      C1260   1.404       .  A
C1259      H1264   1.084       .  S
C1261     Br1262   1.921       .  S
C1266      C1271   1.397       .  A
C1266      H1273   1.083       .  S
C1267      C1268   1.414       .  A
C1268      C1269   1.397       .  A
C1268     Br1275   1.918       .  S
C1269      C1270   1.405       .  A
C1269      H1274   1.083       .  S
C1271     Br1272   1.921       .  S
N1276      N1277   1.318       .  A
N1276      N1792   1.315       .  A
N1276     Mn1305   2.195       .  S
N1277      C1794   1.353       .  A
N1278      N1790   1.315   1_545  A
N1278      N1279   1.320       .  A
N1278     Mn1294   2.196       .  S
N1279      C1795   1.352       .  A
N1280      N1788   1.315       .  A
N1280      N1281   1.322       .  A
N1280     Mn1305   2.212       .  S
N1281      C1285   1.355       .  A
N1282      N1786   1.315   1_545  A
N1282      N1283   1.319       .  A
N1282     Mn1294   2.198       .  S
N1283      C1284   1.353   1_545  A
C1284      N1787   1.353       .  A
C1284      C1472   1.476       .  S
C1285      N1789   1.352       .  A
C1285      C1462   1.480       .  S
N1286      N1287   1.317       .  A
N1286     Mn1316   2.195       .  S
N1287      C1295   1.354   1_655  A
N1288      N1289   1.319       .  A
N1288     Mn1294   2.197       .  S
N1289      C1296   1.355       .  A
N1290      N1291   1.319       .  A
N1290     Mn1316   2.194       .  S
N1292      N1293   1.319       .  A
N1292     Mn1294   2.198       .  S
Mn1294    Cl1318   2.546       .  S
C1295      C1495   1.483       .  S
C1296      C1525   1.484       .  S
N1297      N1298   1.319       .  A
N1297     Mn1305   2.204       .  S
N1299      N1300   1.319       .  A
N1299     Mn1317   2.192       .  S
N1301      N1302   1.322       .  A
N1301     Mn1305   2.213       .  S
N1302      C1307   1.356       .  A
N1303      N1304   1.319       .  A
N1303     Mn1317   2.189       .  S
N1304      C1306   1.351       .  A
Mn1305    Cl1828   2.542       .  S
C1306      C1502   1.479       .  S
C1307      C1512   1.485       .  S
N1308      N1309   1.318       .  A
N1308      N1824   1.314   1_545  A
N1308     Mn1316   2.197       .  S
N1309      C1319   1.352       .  A
N1310      N1311   1.317       .  A
N1310      N1822   1.313       .  A
N1310     Mn1317   2.187       .  S
N1311      C1320   1.353       .  A
N1312      N1820   1.313   1_545  A
N1312      N1313   1.320       .  A
N1312     Mn1316   2.200       .  S
N1313      C1830   1.354       .  A
N1314      N1818   1.314       .  A
N1314      N1315   1.320       .  A
N1314     Mn1317   2.193       .  S
N1315      C1829   1.354       .  A
Cl1318    Mn1815   2.542   1_545  S
C1319      N1825   1.354   1_545  A
C1319      C1482   1.480       .  S
C1320      N1823   1.354       .  A
C1320      C1455   1.484       .  S
N1321      N1322   1.318       .  A
N1321     Mn1350   2.196       .  S
N1323      N1324   1.320       .  A
N1323     Mn1339   2.202       .  S
N1325      N1326   1.321       .  A
N1325     Mn1350   2.199       .  S
N1326      C1330   1.354       .  A
N1327      N1328   1.319       .  A
N1327     Mn1339   2.201       .  S
N1328      C1329   1.353       .  A
C1329      C1522   1.484       .  S
C1330      C1515   1.484       .  S
N1331      N1332   1.318       .  A
N1331     Mn1361   2.188       .  S
N1332      C1340   1.351       .  A
N1333      N1334   1.321       .  A
N1333     Mn1339   2.203       .  S
N1335      N1336   1.319       .  A
N1335     Mn1361   2.199       .  S
N1336      C1341   1.355   1_556  A
N1337      N1338   1.317       .  A
N1337     Mn1339   2.196       .  S
C1340      C1432   1.479       .  S
C1341      C1445   1.489       .  S
N1342      N1343   1.317       .  A
N1342     Mn1350   2.191       .  S
N1344      N1345   1.318       .  A
N1344     Mn1362   2.196       .  S
N1345      C1352   1.351       .  A
N1346      N1347   1.321       .  A
N1346     Mn1350   2.199       .  S
N1348      N1349   1.320       .  A
N1348     Mn1362   2.195       .  S
N1349      C1351   1.352       .  A
C1351      C1415   1.467       .  S
C1352      C1422   1.484       .  S
N1353      N1354   1.321       .  A
N1353     Mn1361   2.203       .  S
N1354      C1364   1.356       .  A
N1355      N1356   1.322       .  A
N1355     Mn1362   2.199       .  S
N1356      C1365   1.356       .  A
N1357      N1358   1.318       .  A
N1357     Mn1361   2.191       .  S
N1359      N1360   1.316       .  A
N1359     Mn1362   2.193       .  S
Mn1362    Cl1363   2.540       .  S
C1364      C1492   1.484       .  S
C1365      C1505   1.480       .  S
N1366      N1367   1.320       .  A
N1366     Mn1395   2.192       .  S
N1367      C1374   1.352       .  A
N1368      N1369   1.316       .  A
N1368     Mn1384   2.191       .  S
N1370      N1371   1.320       .  A
N1370     Mn1395   2.195       .  S
N1371      C1375   1.355       .  A
N1372      N1373   1.316       .  A
N1372     Mn1384   2.183       .  S
C1374      C1412   1.466       .  S
C1375      C1435   1.481       .  S
N1376      N1892   1.315   1_545  A
N1376      N1377   1.321       .  A
N1376     Mn1406   2.210       .  S
N1377      C1385   1.356   1_545  A
N1378      N1379   1.322       .  A
N1378      N1890   1.314       .  A
N1378     Mn1384   2.195       .  S
N1379      C1386   1.354       .  A
N1380      N1888   1.314   1_545  A
N1380      N1381   1.316       .  A
N1380     Mn1406   2.198       .  S
N1381      C1896   1.352   1_545  A
N1382      N1886   1.315       .  A
N1382      N1383   1.317       .  A
N1382     Mn1384   2.183       .  S
N1383      C1895   1.349       .  A
C1385      N1893   1.349       .  A
C1385      C1475   1.477       .  S
C1386      N1891   1.352       .  A
C1386      C1485   1.481       .  S
N1387      N1388   1.319       .  A
N1387      N1903   1.315       .  A
N1387     Mn1395   2.193       .  S
N1388      C1906   1.352       .  A
N1389      N1901   1.313   1_545  A
N1389      N1390   1.319       .  A
N1389     Mn1407   2.198       .  S
N1390      C1907   1.355   1_545  A
N1391      N1899   1.313       .  A
N1391      N1392   1.318       .  A
N1391     Mn1395   2.187       .  S
N1392      C1397   1.352       .  A
N1393      N1897   1.315   1_545  A
N1393      N1394   1.320       .  A
N1393     Mn1407   2.203       .  S
N1394      C1396   1.354       .  A
Mn1395    Cl1408   2.548       .  S
C1396      N1898   1.352   1_545  A
C1396      C1465   1.476       .  S
C1397      N1900   1.355       .  A
C1397      C1452   1.482       .  S
N1398      N1399   1.320       .  A
N1398     Mn1406   2.201       .  S
N1400      N1401   1.317       .  A
N1400     Mn1407   2.199       .  S
N1401      C1410   1.351       .  A
N1402      N1403   1.323       .  A
N1402     Mn1406   2.209       .  S
N1404      N1405   1.318       .  A
N1404     Mn1407   2.195       .  S
N1405      C1409   1.354   1_556  A
Mn1406    Cl1663   2.546   1_545  S
Mn1407    Cl1918   2.536   1_545  S
Cl1408    Mn1661   2.546   1_556  S
Cl1408    Mn1917   2.536       .  S
C1409      C1425   1.484       .  S
C1410      C1442   1.490       .  S
C1411      C1412   1.403       .  A
C1411      C1416   1.399       .  A
C1411      H1418   1.082       .  S
C1413      C1414   1.391       .  A
C1413     Br1420   1.922       .  S
C1414      H1419   1.081       .  S
C1415      C1416   1.409       .  A
C1416     Br1417   1.918       .  S
C1421      C1426   1.400       .  A
C1421      H1428   1.087       .  S
C1422      C1423   1.414       .  A
C1423      C1424   1.396       .  A
C1423     Br1430   1.923       .  S
C1424      C1425   1.404   1_556  A
C1424      H1429   1.087       .  S
C1426     Br1427   1.922       .  S
C1431      C1432   1.402   1_554  A
C1431      C1436   1.392       .  A
C1432      C1433   1.413       .  A
C1433      C1434   1.398       .  A
C1433     Br1440   1.922       .  S
C1434      C1435   1.406       .  A
C1434      H1439   1.083       .  S
C1435      C1436   1.415   1_556  A
C1441      C1442   1.406   1_554  A
C1441      C1446   1.402       .  A
C1441      H1448   1.087       .  S
C1442      C1443   1.417       .  A
C1443      C1444   1.397       .  A
C1443     Br1450   1.923       .  S
C1444      C1445   1.403   1_556  A
C1444      H1449   1.087       .  S
C1445      C1446   1.415       .  A
C1451      C1452   1.405       .  A
C1451      C1456   1.397       .  A
C1451      H1458   1.083       .  S
C1452      C1453   1.414       .  A
C1453      C1454   1.397       .  A
C1453     Br1970   1.924       .  S
C1454      C1455   1.406       .  A
C1454      H1969   1.081       .  S
C1455      C1456   1.413       .  A
C1456     Br1457   1.922       .  S
H1459      C1964   1.081       .  S
Br1460     C1963   1.924       .  S
C1461      C1462   1.403       .  A
C1461      C1976   1.399       .  A
C1461      H1468   1.085       .  S
C1462      C1463   1.414       .  A
C1463      C1974   1.399       .  A
C1463     Br1470   1.921       .  S
C1464      C1973   1.399       .  A
C1464      C1465   1.402       .  A
C1464      H1469   1.085       .  S
C1465      C1466   1.410   1_545  A
C1466      C1971   1.399       .  A
C1466     Br1467   1.920       .  S
C1471      C1982   1.403       .  A
C1471      C1476   1.396       .  A
C1471      H1478   1.088       .  S
C1472      C1981   1.403       .  A
C1472      C1473   1.410   1_565  A
C1473      C1474   1.397       .  A
C1473     Br1480   1.921       .  S
C1474      C1475   1.403   1_545  A
C1474      H1479   1.088       .  S
C1475      C1986   1.414       .  A
C1476      C1985   1.414       .  A
C1476     Br1477   1.922       .  S
C1481      C1992   1.407       .  A
C1481      C1486   1.401       .  A
C1481      H1488   1.081       .  S
C1482      C1991   1.407   1_545  A
C1482      C1483   1.412       .  A
C1483      C1484   1.393       .  A
C1483     Br1490   1.922       .  S
C1484      C1995   1.404   1_545  A
C1484      H1489   1.081       .  S
C1485      C1994   1.404       .  A
C1485      C1486   1.412       .  A
C1486     Br1487   1.921       .  S
C1491      C1492   1.405       .  A
C1491      C1496   1.399       .  A
C1491      H1498   1.087       .  S
C1493      C1494   1.394       .  A
C1493     Br1500   1.923       .  S
C1494      C1495   1.403   1_655  A
C1494      H1499   1.087       .  S
C1496     Br1497   1.922       .  S
C1501      C1506   1.394       .  A
C1501      H1508   1.084       .  S
C1502      C1503   1.414       .  A
C1503      C1504   1.400       .  A
C1503     Br1510   1.921       .  S
C1504      C1505   1.404       .  A
C1504      H1509   1.082       .  S
C1506     Br1507   1.921       .  S
C1511      C1512   1.405       .  A
C1511      C1516   1.401       .  A
C1511      H1518   1.084       .  S
C1513      C1514   1.400       .  A
C1513     Br1520   1.922       .  S
C1514      C1515   1.404       .  A
C1514      H1519   1.084       .  S
C1516     Br1517   1.921       .  S
C1521      C1526   1.397       .  A
C1521      H1528   1.083       .  S
C1522      C1523   1.414       .  A
C1523      C1524   1.397       .  A
C1523     Br1530   1.918       .  S
C1524      C1525   1.405       .  A
C1524      H1529   1.083       .  S
C1526     Br1527   1.921       .  S
N1531      N1532   1.318       .  A
N1531     Mn1560   2.194       .  S
N1533      N1534   1.320       .  A
N1533     Mn1549   2.196       .  S
N1535      N1536   1.322       .  A
N1535     Mn1560   2.212       .  S
N1536      C1540   1.355   1_565  A
N1537      N1538   1.319       .  A
N1537     Mn1549   2.198       .  S
N1538      C1539   1.353       .  A
C1539      C1727   1.476       .  S
C1540      C1717   1.480       .  S
N1541      N1542   1.318       .  A
N1541     Mn1571   2.194       .  S
N1542      C1550   1.354   1_655  A
N1543      N1544   1.319       .  A
N1543     Mn1549   2.197       .  S
N1544      C1551   1.355       .  A
N1545      N1546   1.319       .  A
N1545     Mn1571   2.194       .  S
N1547      N1548   1.319       .  A
N1547     Mn1549   2.198       .  S
Mn1549    Cl1573   2.545       .  S
C1550      C1750   1.483       .  S
C1551      C1780   1.484       .  S
N1552      N1553   1.319       .  A
N1552     Mn1560   2.203       .  S
N1554      N1555   1.319       .  A
N1554     Mn1572   2.192       .  S
N1556      N1557   1.322       .  A
N1556     Mn1560   2.214       .  S
N1557      C1562   1.356       .  A
N1558      N1559   1.319       .  A
N1558     Mn1572   2.189       .  S
N1559      C1561   1.351       .  A
C1561      C1757   1.479       .  S
C1562      C1767   1.485       .  S
N1563      N1564   1.318       .  A
N1563     Mn1571   2.197       .  S
N1564      C1574   1.352       .  A
N1565      N1566   1.317       .  A
N1565     Mn1572   2.187       .  S
N1566      C1575   1.353   1_565  A
N1567      N1568   1.320       .  A
N1567     Mn1571   2.200       .  S
N1569      N1570   1.320       .  A
N1569     Mn1572   2.193       .  S
C1574      C1737   1.480       .  S
C1575      C1710   1.484       .  S
N1576      N1577   1.318       .  A
N1576     Mn1605   2.196       .  S
N1578      N1579   1.320       .  A
N1578     Mn1594   2.203       .  S
N1580      N1581   1.321       .  A
N1580     Mn1605   2.199       .  S
N1581      C1585   1.354       .  A
N1582      N1583   1.319       .  A
N1582     Mn1594   2.201       .  S
N1583      C1584   1.353       .  A
C1584      C1777   1.484       .  S
C1585      C1770   1.484       .  S
N1586      N1847   1.315       .  A
N1586      N1587   1.318       .  A
N1586     Mn1616   2.188       .  S
N1587      C1595   1.351       .  A
N1588      N1589   1.321       .  A
N1588      N1845   1.315   1_554  A
N1588     Mn1594   2.203       .  S
N1589      C1851   1.353       .  A
N1590      N1843   1.315       .  A
N1590      N1591   1.319       .  A
N1590     Mn1616   2.199       .  S
N1591      C1596   1.355       .  A
N1592      N1841   1.315   1_554  A
N1592      N1593   1.317       .  A
N1592     Mn1594   2.196       .  S
N1593      C1850   1.354   1_554  A
C1595      N1848   1.354       .  A
C1595      C1687   1.478       .  S
C1596      N1844   1.353       .  A
C1596      C1700   1.489       .  S
N1597      N1598   1.317       .  A
N1597      N1858   1.316   1_554  A
N1597     Mn1605   2.191       .  S
N1598      C1861   1.351   1_554  A
N1599      N1856   1.314       .  A
N1599      N1600   1.318       .  A
N1599     Mn1617   2.197       .  S
N1600      C1607   1.351       .  A
N1601      N1854   1.314   1_554  A
N1601      N1602   1.321       .  A
N1601     Mn1605   2.199       .  S
N1602      C1862   1.355   1_554  A
N1603      N1852   1.316       .  A
N1603      N1604   1.320       .  A
N1603     Mn1617   2.195       .  S
N1604      C1606   1.352       .  A
Mn1605    Cl1873   2.549   1_554  S
C1606      N1853   1.351       .  A
C1606      C1670   1.467       .  S
C1607      N1857   1.355       .  A
C1607      C1677   1.484       .  S
N1608      N1609   1.321       .  A
N1608     Mn1616   2.202       .  S
N1609      C1619   1.356       .  A
N1610      N1611   1.322       .  A
N1610     Mn1617   2.199       .  S
N1611      C1620   1.356       .  A
N1612      N1613   1.317       .  A
N1612     Mn1616   2.191       .  S
N1614      N1615   1.316       .  A
N1614     Mn1617   2.193       .  S
Mn1617    Cl1618   2.540       .  S
Cl1618    Mn1860   2.549       .  S
C1619      C1747   1.484       .  S
C1620      C1760   1.480       .  S
N1621      N1622   1.320       .  A
N1621      N1882   1.314       .  A
N1621     Mn1650   2.192       .  S
N1622      C1629   1.352       .  A
N1623      N1880   1.313   1_554  A
N1623      N1624   1.316       .  A
N1623     Mn1639   2.191       .  S
N1624      C1885   1.350   1_554  A
N1625      N1878   1.313       .  A
N1625      N1626   1.320       .  A
N1625     Mn1650   2.195       .  S
N1626      C1630   1.355       .  A
N1627      N1876   1.314   1_554  A
N1627      N1628   1.316       .  A
N1627     Mn1639   2.183       .  S
N1628      C1884   1.350   1_554  A
C1629      N1883   1.350       .  A
C1629      C1667   1.466       .  S
C1630      N1879   1.350       .  A
C1630      C1690   1.481       .  S
N1631      N1632   1.321       .  A
N1631     Mn1661   2.210       .  S
N1632      C1640   1.356       .  A
N1633      N1634   1.322       .  A
N1633     Mn1639   2.196       .  S
N1634      C1641   1.354       .  A
N1635      N1636   1.316       .  A
N1635     Mn1661   2.198       .  S
N1637      N1638   1.317       .  A
N1637     Mn1639   2.183       .  S
Mn1639    Cl1918   2.539   1_554  S
C1640      C1730   1.476       .  S
C1641      C1740   1.481       .  S
N1642      N1643   1.319       .  A
N1642     Mn1650   2.193       .  S
N1644      N1645   1.319       .  A
N1644     Mn1662   2.198       .  S
N1646      N1647   1.318       .  A
N1646     Mn1650   2.187       .  S
N1647      C1652   1.352       .  A
N1648      N1649   1.320       .  A
N1648     Mn1662   2.203       .  S
N1649      C1651   1.354       .  A
Mn1650    Cl1663   2.548       .  S
C1651      C1720   1.476       .  S
C1652      C1707   1.482       .  S
N1653      N1654   1.320       .  A
N1653      N1914   1.314   1_554  A
N1653     Mn1661   2.201       .  S
N1654      C1919   1.353       .  A
N1655      N1656   1.317       .  A
N1655      N1912   1.316       .  A
N1655     Mn1662   2.199       .  S
N1656      C1665   1.350       .  A
N1657      N1910   1.316   1_554  A
N1657      N1658   1.323       .  A
N1657     Mn1661   2.209       .  S
N1658      C1920   1.357   1_554  A
N1659      N1908   1.314       .  A
N1659      N1660   1.318       .  A
N1659     Mn1662   2.195       .  S
N1660      C1664   1.354       .  A
Cl1663    Mn1894   2.539       .  S
C1664      N1909   1.353       .  A
C1664      C1680   1.484       .  S
C1665      N1913   1.357       .  A
C1665      C1697   1.490       .  S
C1666      C1667   1.403       .  A
C1666      C1671   1.399       .  A
C1666      H1673   1.082       .  S
C1667      C1923   1.409       .  A
C1668      C1922   1.409   1_554  A
C1668      C1669   1.391       .  A
C1668     Br1675   1.922       .  S
C1669      C1925   1.400   1_554  A
C1669      H1674   1.081       .  S
C1670      C1924   1.400       .  A
C1670      C1671   1.409       .  A
C1671     Br1672   1.918       .  S
C1676      C1932   1.405   1_554  A
C1676      C1681   1.400       .  A
C1676      H1683   1.087       .  S
C1677      C1931   1.405       .  A
C1677      C1678   1.414       .  A
C1678      C1679   1.396       .  A
C1678     Br1685   1.923       .  S
C1679      C1680   1.404       .  A
C1679      H1684   1.087       .  S
C1680      C1936   1.414       .  A
C1681      C1935   1.414       .  A
C1681     Br1682   1.922       .  S
C1686      C1687   1.402       .  A
C1686      C1691   1.392       .  A
C1686      H1948   1.085       .  S
C1687      C1688   1.413       .  A
C1688      C1689   1.399       .  A
C1688     Br1695   1.922       .  S
C1689      C1690   1.406       .  A
C1689      H1694   1.083       .  S
C1690      C1691   1.415       .  A
C1691     Br1947   1.922       .  S
Br1692     C1946   1.922       .  S
H1693      C1941   1.085       .  S
C1696      C1697   1.406       .  A
C1696      C1701   1.402       .  A
C1696      H1703   1.087       .  S
C1697      C1698   1.417       .  A
C1698      C1699   1.397       .  A
C1698     Br1705   1.923       .  S
C1699      C1700   1.403       .  A
C1699      H1704   1.087       .  S
C1700      C1701   1.415       .  A
C1701     Br1957   1.920       .  S
Br1702     C1956   1.920       .  S
C1706      C1707   1.405   1_545  A
C1706      C1711   1.397       .  A
C1706      H1713   1.083       .  S
C1707      C1708   1.414       .  A
C1708      C1709   1.396       .  A
C1709      C1710   1.406   1_565  A
C1710      C1711   1.413       .  A
C1711     Br1712   1.922       .  S
C1716      C1717   1.403   1_565  A
C1716      H1723   1.085       .  S
C1717      C1718   1.414       .  A
C1718     Br1725   1.921       .  S
C1719      C1720   1.402       .  A
C1719      H1724   1.085       .  S
C1720      C1721   1.410       .  A
C1721     Br1722   1.920       .  S
C1726      C1731   1.396       .  A
C1726      H1733   1.088       .  S
C1727      C1728   1.410       .  A
C1728      C1729   1.397       .  A
C1728     Br1735   1.921       .  S
C1729      C1730   1.403       .  A
C1729      H1734   1.088       .  S
C1731     Br1732   1.922       .  S
C1736      C1741   1.401       .  A
C1736      H1743   1.081       .  S
C1737      C1738   1.412       .  A
C1738      C1739   1.393       .  A
C1738     Br1745   1.922       .  S
C1739      H1744   1.081       .  S
C1740      C1741   1.412       .  A
C1741     Br1742   1.921       .  S
C1746      C1747   1.405       .  A
C1746      C1751   1.399       .  A
C1746      H1753   1.087       .  S
C1748      C1749   1.394       .  A
C1748     Br1755   1.923       .  S
C1749      C1750   1.403   1_655  A
C1749      H1754   1.087       .  S
C1751     Br1752   1.922       .  S
C1756      C1761   1.394       .  A
C1756      H1763   1.084       .  S
C1757      C1758   1.414       .  A
C1758      C1759   1.400       .  A
C1758     Br1765   1.921       .  S
C1759      C1760   1.404       .  A
C1759      H1764   1.082       .  S
C1761     Br1762   1.921       .  S
C1766      C1767   1.405       .  A
C1766      C1771   1.401       .  A
C1766      H1773   1.084       .  S
C1768      C1769   1.400       .  A
C1768     Br1775   1.922       .  S
C1769      C1770   1.404       .  A
C1769      H1774   1.084       .  S
C1771     Br1772   1.921       .  S
C1776      C1781   1.397       .  A
C1776      H1783   1.083       .  S
C1777      C1778   1.414       .  A
C1778      C1779   1.397       .  A
C1778     Br1785   1.918       .  S
C1779      C1780   1.405       .  A
C1779      H1784   1.083       .  S
C1781     Br1782   1.921       .  S
N1786      N1787   1.318       .  A
N1786     Mn1815   2.195       .  S
N1788      N1789   1.320       .  A
N1788     Mn1804   2.196       .  S
N1790      N1791   1.322       .  A
N1790     Mn1815   2.212       .  S
N1791      C1795   1.355   1_565  A
N1792      N1793   1.319       .  A
N1792     Mn1804   2.198       .  S
N1793      C1794   1.353       .  A
C1794      C1982   1.476       .  S
C1795      C1972   1.480       .  S
N1796      N1797   1.317       .  A
N1796     Mn1826   2.195       .  S
N1797      C1805   1.354   1_655  A
N1798      N1799   1.319       .  A
N1798     Mn1804   2.198       .  S
N1799      C1806   1.355       .  A
N1800      N1801   1.319       .  A
N1800     Mn1826   2.194       .  S
N1802      N1803   1.319       .  A
N1802     Mn1804   2.197       .  S
Mn1804    Cl1828   2.546       .  S
C1805      C2005   1.483       .  S
C1806      C2035   1.485       .  S
N1807      N1808   1.319       .  A
N1807     Mn1815   2.204       .  S
N1809      N1810   1.319       .  A
N1809     Mn1827   2.192       .  S
N1811      N1812   1.322       .  A
N1811     Mn1815   2.213       .  S
N1812      C1817   1.356       .  A
N1813      N1814   1.319       .  A
N1813     Mn1827   2.189       .  S
N1814      C1816   1.351       .  A
C1816      C2012   1.479       .  S
C1817      C2022   1.485       .  S
N1818      N1819   1.318       .  A
N1818     Mn1826   2.197       .  S
N1819      C1829   1.352       .  A
N1820      N1821   1.317       .  A
N1820     Mn1827   2.187       .  S
N1821      C1830   1.353   1_565  A
N1822      N1823   1.320       .  A
N1822     Mn1826   2.200       .  S
N1824      N1825   1.320       .  A
N1824     Mn1827   2.193       .  S
C1829      C1992   1.480       .  S
C1830      C1965   1.484       .  S
N1831      N1832   1.318       .  A
N1831     Mn1860   2.196       .  S
N1833      N1834   1.320       .  A
N1833     Mn1849   2.202       .  S
N1835      N1836   1.321       .  A
N1835     Mn1860   2.199       .  S
N1836      C1840   1.354       .  A
N1837      N1838   1.319       .  A
N1837     Mn1849   2.202       .  S
N1838      C1839   1.353       .  A
C1839      C2032   1.484       .  S
C1840      C2025   1.484       .  S
N1841      N1842   1.318       .  A
N1841     Mn1871   2.188       .  S
N1842      C1850   1.351       .  A
N1843      N1844   1.321       .  A
N1843     Mn1849   2.203       .  S
N1845      N1846   1.319       .  A
N1845     Mn1871   2.199       .  S
N1846      C1851   1.355   1_556  A
N1847      N1848   1.317       .  A
N1847     Mn1849   2.196       .  S
C1850      C1942   1.479       .  S
C1851      C1955   1.489       .  S
N1852      N1853   1.317       .  A
N1852     Mn1860   2.192       .  S
N1854      N1855   1.318       .  A
N1854     Mn1872   2.196       .  S
N1855      C1862   1.351       .  A
N1856      N1857   1.321       .  A
N1856     Mn1860   2.199       .  S
N1858      N1859   1.320       .  A
N1858     Mn1872   2.195       .  S
N1859      C1861   1.352       .  A
C1861      C1925   1.467       .  S
C1862      C1932   1.484       .  S
N1863      N1864   1.321       .  A
N1863     Mn1871   2.203       .  S
N1864      C1874   1.356       .  A
N1865      N1866   1.322       .  A
N1865     Mn1872   2.199       .  S
N1866      C1875   1.356       .  A
N1867      N1868   1.318       .  A
N1867     Mn1871   2.192       .  S
N1869      N1870   1.316       .  A
N1869     Mn1872   2.193       .  S
Mn1872    Cl1873   2.540       .  S
C1874      C2002   1.484       .  S
C1875      C2015   1.480       .  S
N1876      N1877   1.320       .  A
N1876     Mn1905   2.192       .  S
N1877      C1884   1.352       .  A
N1878      N1879   1.316       .  A
N1878     Mn1894   2.191       .  S
N1880      N1881   1.320       .  A
N1880     Mn1905   2.195       .  S
N1881      C1885   1.355       .  A
N1882      N1883   1.316       .  A
N1882     Mn1894   2.183       .  S
C1884      C1922   1.466       .  S
C1885      C1945   1.481       .  S
N1886      N1887   1.321       .  A
N1886     Mn1916   2.210       .  S
N1887      C1895   1.356       .  A
N1888      N1889   1.322       .  A
N1888     Mn1894   2.196       .  S
N1889      C1896   1.354       .  A
N1890      N1891   1.316       .  A
N1890     Mn1916   2.198       .  S
N1892      N1893   1.317       .  A
N1892     Mn1894   2.183       .  S
C1895      C1985   1.477       .  S
C1896      C1995   1.481       .  S
N1897      N1898   1.319       .  A
N1897     Mn1905   2.193       .  S
N1899      N1900   1.319       .  A
N1899     Mn1917   2.198       .  S
N1901      N1902   1.318       .  A
N1901     Mn1905   2.187       .  S
N1902      C1907   1.352       .  A
N1903      N1904   1.320       .  A
N1903     Mn1917   2.203       .  S
N1904      C1906   1.354       .  A
Mn1905    Cl1918   2.548       .  S
C1906      C1975   1.476       .  S
C1907      C1962   1.482       .  S
N1908      N1909   1.320       .  A
N1908     Mn1916   2.201       .  S
N1910      N1911   1.317       .  A
N1910     Mn1917   2.199       .  S
N1911      C1920   1.350       .  A
N1912      N1913   1.323       .  A
N1912     Mn1916   2.209       .  S
N1914      N1915   1.318       .  A
N1914     Mn1917   2.195       .  S
N1915      C1919   1.354   1_556  A
C1919      C1935   1.484       .  S
C1920      C1952   1.490       .  S
C1921      C1922   1.403       .  A
C1921      C1926   1.399       .  A
C1921      H1928   1.082       .  S
C1923      C1924   1.391       .  A
C1923     Br1930   1.922       .  S
C1924      H1929   1.081       .  S
C1925      C1926   1.409       .  A
C1926     Br1927   1.918       .  S
C1931      C1936   1.400       .  A
C1931      H1938   1.087       .  S
C1932      C1933   1.414       .  A
C1933      C1934   1.396       .  A
C1933     Br1940   1.923       .  S
C1934      C1935   1.404   1_556  A
C1934      H1939   1.087       .  S
C1936     Br1937   1.922       .  S
C1941      C1942   1.402   1_554  A
C1941      C1946   1.392       .  A
C1942      C1943   1.413       .  A
C1943      C1944   1.398       .  A
C1943     Br1950   1.922       .  S
C1944      C1945   1.406       .  A
C1944      H1949   1.083       .  S
C1945      C1946   1.415   1_556  A
C1951      C1952   1.406   1_554  A
C1951      C1956   1.402       .  A
C1951      H1958   1.087       .  S
C1952      C1953   1.417       .  A
C1953      C1954   1.397       .  A
C1953     Br1960   1.923       .  S
C1954      C1955   1.403   1_556  A
C1954      H1959   1.087       .  S
C1955      C1956   1.415       .  A
C1961      C1962   1.405   1_545  A
C1961      C1966   1.397       .  A
C1961      H1968   1.083       .  S
C1962      C1963   1.414       .  A
C1963      C1964   1.396       .  A
C1964      C1965   1.406   1_565  A
C1965      C1966   1.413       .  A
C1966     Br1967   1.922       .  S
C1971      C1972   1.404   1_565  A
C1971      H1978   1.085       .  S
C1972      C1973   1.414       .  A
C1973     Br1980   1.921       .  S
C1974      C1975   1.402       .  A
C1974      H1979   1.085       .  S
C1975      C1976   1.410       .  A
C1976     Br1977   1.920       .  S
C1981      C1986   1.396       .  A
C1981      H1988   1.088       .  S
C1982      C1983   1.410       .  A
C1983      C1984   1.397       .  A
C1983     Br1990   1.921       .  S
C1984      C1985   1.403       .  A
C1984      H1989   1.088       .  S
C1986     Br1987   1.922       .  S
C1991      C1996   1.401       .  A
C1991      H1998   1.081       .  S
C1992      C1993   1.412       .  A
C1993      C1994   1.393       .  A
C1993     Br2000   1.922       .  S
C1994      H1999   1.081       .  S
C1995      C1996   1.412       .  A
C1996     Br1997   1.921       .  S
C2001      C2002   1.405       .  A
C2001      C2006   1.399       .  A
C2001      H2008   1.087       .  S
C2003      C2004   1.394       .  A
C2003     Br2010   1.923       .  S
C2004      C2005   1.403   1_655  A
C2004      H2009   1.087       .  S
C2006     Br2007   1.922       .  S
C2011      C2016   1.394       .  A
C2011      H2018   1.084       .  S
C2012      C2013   1.414       .  A
C2013      C2014   1.400       .  A
C2013     Br2020   1.921       .  S
C2014      C2015   1.404       .  A
C2014      H2019   1.082       .  S
C2016     Br2017   1.921       .  S
C2021      C2022   1.405       .  A
C2021      C2026   1.401       .  A
C2021      H2028   1.084       .  S
C2023      C2024   1.400       .  A
C2023     Br2030   1.922       .  S
C2024      C2025   1.404       .  A
C2024      H2029   1.084       .  S
C2026     Br2027   1.921       .  S
C2031      C2036   1.397       .  A
C2031      H2038   1.083       .  S
C2032      C2033   1.414       .  A
C2033      C2034   1.397       .  A
C2033     Br2040   1.918       .  S
C2034      C2035   1.405       .  A
C2034      H2039   1.083       .  S
C2036     Br2037   1.921       .  S
