geometry optimzed in LAMMPS
_audit_creation_date              2020-12-01 
_audit_creation_method            'lammps2cif' 
_symmetry_space_group_name_H-M    'P1' 
_symmetry_Int_Tables_number       1 
_symmetry_cell_setting            triclinic 
loop_ 
_symmetry_equiv_pos_as_xyz 
  x,y,z 
_cell_length_a                    52.12267716 
_cell_length_b                    51.75143534425625 
_cell_length_c                    51.954881617585954 
_cell_angle_alpha                 89.83507582020012 
_cell_angle_beta                  89.81842457344807 
_cell_angle_gamma                 90.041529257458 
loop_ 
_atom_site_label 
_atom_site_type_symbol 
_atom_site_fract_x 
_atom_site_fract_y 
_atom_site_fract_z 
_atom_site_charge 
O1          O  0.87420346  0.45393781  0.80547049    -0.72300
O2          O  0.82480808  0.50337674  0.83827258    -0.73200
O3          O  0.86829132  0.50836998  0.80587835    -0.61900
O4          O  0.83054560  0.44863054  0.83807578    -0.70300
O5          O  0.85579731  0.45154508  0.87211553    -0.69800
O6          O  0.89364870  0.51025656  0.84012558    -0.61100
O7          O  0.85024493  0.50579402  0.87228552    -0.73600
O8          O  0.89910509  0.45639747  0.83981185    -0.72400
Cu9        Cu  0.84851257  0.47846133  0.82070884     1.04600
Cu10       Cu  0.87548891  0.48105622  0.85727731     1.04300
C11         C  0.89463041  0.44747847  0.81743228     0.93900
C12         C  0.82990390  0.51255298  0.86048330     0.93100
C13         C  0.88708342  0.51847365  0.81794938     0.85200
C14         C  0.83719352  0.44071675  0.86038369     0.91500
O15         O  0.67567517  0.67516947  0.97541272    -0.72300
O16         O  0.72624066  0.64239489  0.02327374    -0.73200
O17         O  0.68641695  0.67869973  0.02812155    -0.61900
O18         O  0.71573817  0.63838644  0.97027389    -0.70300
O19         O  0.74329989  0.66983010  0.96209981    -0.69800
O20         O  0.71415692  0.71049722  0.02052645    -0.61100
O21         O  0.75402122  0.67409104  0.01556965    -0.73600
O22         O  0.70325555  0.70668112  0.96749659    -0.72400
Cu23       Cu  0.70008749  0.65754060  0.99945773     1.04600
Cu24       Cu  0.72968253  0.69136629  0.99103230     1.04300
C25         C  0.68115283  0.69647200  0.96426421     0.93900
C26         C  0.74787783  0.65322754  0.02723515     0.93100
C27         C  0.69551060  0.70092149  0.03334556     0.85200
C28         C  0.73452951  0.64736798  0.95720163     0.91500
O29         O  0.47239174  0.84818453  0.84643114    -0.72300
O30         O  0.53260937  0.81622510  0.88118558    -0.73200
O31         O  0.52566094  0.85580225  0.84431610    -0.61900
O32         O  0.47933476  0.80852332  0.88348912    -0.70300
O33         O  0.48188146  0.77942356  0.85236440    -0.69800
O34         O  0.52895528  0.82678881  0.81308319    -0.61100
O35         O  0.53533969  0.78705568  0.85021881    -0.73600
O36         O  0.47496766  0.81952882  0.81506426    -0.72400
Cu37       Cu  0.50232449  0.83317582  0.86488798     1.04600
Cu38       Cu  0.50530586  0.80219474  0.83151917     1.04300
C39         C  0.46446436  0.83948730  0.82489050     0.93900
C40         C  0.54322219  0.79624593  0.87159655     0.93100
C41         C  0.53470481  0.84876132  0.82261660     0.85200
C42         C  0.47394193  0.78619257  0.87461225     0.91500
O43         O  0.70365443  0.97838522  0.69446342    -0.72300
O44         O  0.66545981  0.03512530  0.72995199    -0.73200
O45         O  0.70777838  0.03266096  0.69693821    -0.61900
O46         O  0.66089012  0.98089907  0.72779778    -0.70300
O47         O  0.68633600  0.97742656  0.76159314    -0.69800
O48         O  0.73478803  0.02865418  0.72939348    -0.61100
O49         O  0.69228779  0.03223051  0.76297228    -0.73600
O50         O  0.72923744  0.97400592  0.72822660    -0.72400
Cu51       Cu  0.68356557  0.00685166  0.71116536     1.04600
Cu52       Cu  0.71156038  0.00292726  0.74680203     1.04300
C53         C  0.72230481  0.96708574  0.70574294     0.93900
C54         C  0.67337791  0.04307440  0.75174564     0.93100
C55         C  0.72870942  0.03887723  0.70782370     0.85200
C56         C  0.66594361  0.97091049  0.74967903     0.91500
O57         O  0.06343183  0.68338280  0.67504738    -0.72300
O58         O  0.01393016  0.64007965  0.71441417    -0.73200
O59         O  0.00992378  0.67665553  0.67471563    -0.61900
O60         O  0.06739596  0.64690175  0.71513616    -0.70300
O61         O  0.06390086  0.67792328  0.74399761    -0.69800
O62         O  0.00601323  0.70797100  0.70367634    -0.61100
O63         O  0.00989691  0.67082052  0.74379395    -0.73600
O64         O  0.05984308  0.71475611  0.70378995    -0.72400
Cu65       Cu  0.03884915  0.66069746  0.69387285     1.04600
Cu66       Cu  0.03476289  0.69399695  0.72488257     1.04300
C67         C  0.06925295  0.70596103  0.68281964     0.93900
C68         C  0.00403571  0.64844858  0.73526638     0.93100
C69         C  0.99891242  0.69702654  0.68290141     0.85200
C70         C  0.07490969  0.65743752  0.73591737     0.91500
O71         O  0.80844174  0.83286899  0.52661792    -0.72300
O72         O  0.84858240  0.78652721  0.57242903    -0.73200
O73         O  0.80857346  0.82337756  0.58036266    -0.61900
O74         O  0.84798524  0.79739227  0.51904324    -0.70300
O75         O  0.87668081  0.82833955  0.52499231    -0.69800
O76         O  0.83738596  0.85444987  0.58532093    -0.61100
O77         O  0.87713418  0.81788631  0.57822450    -0.73600
O78         O  0.83725669  0.86398733  0.53175247    -0.72400
Cu79       Cu  0.82736066  0.80890174  0.54959900     1.04600
Cu80       Cu  0.85811073  0.84220013  0.55542583     1.04300
C81         C  0.81708133  0.85520991  0.52098345     0.93900
C82         C  0.86937665  0.79483725  0.58225011     0.93100
C83         C  0.81637588  0.84362840  0.59201141     0.85200
C84         C  0.86819709  0.80946874  0.51183370     0.91500
O85         O  0.54682903  0.22117484  0.88249586    -0.72300
O86         O  0.50122104  0.18156940  0.83535184    -0.73200
O87         O  0.49318206  0.21240214  0.87969156    -0.61900
O88         O  0.55458616  0.19015648  0.83854895    -0.70300
O89         O  0.55784060  0.15557811  0.86358914    -0.69800
O90         O  0.49733835  0.17800949  0.90491523    -0.61100
O91         O  0.50485323  0.14696764  0.86041054    -0.73600
O92         O  0.55102542  0.18633137  0.90726899    -0.72400
Cu93       Cu  0.52372450  0.20259160  0.85819792     1.04600
Cu94       Cu  0.52780857  0.16554851  0.88496997     1.04300
C95         C  0.55662139  0.20973622  0.90188546     0.93900
C96         C  0.49640443  0.15783750  0.84006014     0.93100
C97         C  0.48565605  0.19881583  0.89884369     0.85200
C98         C  0.56571973  0.16900721  0.84448072     0.91500
O99         O  0.72842081  0.35097796  0.00479935    -0.72300
O100        O  0.69480772  0.32448817  0.06869960    -0.73200
O101        O  0.73670940  0.35697081  0.05776395    -0.61900
O102        O  0.68638065  0.31849411  0.01541366    -0.70300
O103        O  0.71176872  0.28403857  0.01572093    -0.69800
O104        O  0.76333822  0.32348759  0.05713618    -0.61100
O105        O  0.72092914  0.29071149  0.06909253    -0.73600
O106        O  0.75398960  0.31674928  0.00392829    -0.72400
Cu107      Cu  0.71069037  0.33886564  0.03669787     1.04600
Cu108      Cu  0.73844140  0.30249140  0.03648394     1.04300
C109        C  0.74652561  0.33816615  0.99425073     0.93900
C110        C  0.70248259  0.30354154  0.07910472     0.93100
C111        C  0.75804713  0.34659776  0.06381540     0.85200
C112        C  0.69102681  0.29521346  0.00893330     0.91500
O113        O  0.83304317  0.49021200  0.17981786    -0.72300
O114        O  0.85710825  0.54535293  0.22781826    -0.73200
O115        O  0.82937891  0.54472817  0.18087367    -0.61900
O116        O  0.86034834  0.49091936  0.22647618    -0.70300
O117        O  0.89666824  0.49284914  0.20458584    -0.69800
O118        O  0.86583546  0.54752889  0.15900995    -0.61100
O119        O  0.89368200  0.54733994  0.20591269    -0.73600
O120        O  0.86963380  0.49285259  0.15783150    -0.72400
Cu121      Cu  0.84368057  0.51777877  0.20448461     1.04600
Cu122      Cu  0.88272985  0.52035656  0.18106114     1.04300
C123        C  0.84765657  0.48270975  0.16155057     0.93900
C124        C  0.87966598  0.55448469  0.22473382     0.93100
C125        C  0.84260687  0.55459331  0.16258654     0.85200
C126        C  0.88315189  0.48289116  0.22267472     0.91500
O127        O  0.98873712  0.70359891  0.39583022    -0.72300
O128        O  0.03454212  0.65669927  0.35598840    -0.73200
O129        O  0.04147414  0.69346178  0.39547633    -0.61900
O130        O  0.98147831  0.66654143  0.35694232    -0.70300
O131        O  0.98643142  0.69647484  0.32699550    -0.69800
O132        O  0.04675332  0.72419358  0.36642123    -0.61100
O133        O  0.04005623  0.68727774  0.32665956    -0.73600
O134        O  0.99348313  0.73400061  0.36597253    -0.72400
Cu135      Cu  0.01136150  0.67903273  0.37703552     1.04600
Cu136      Cu  0.01687695  0.71156654  0.34543925     1.04300
C137        C  0.98415372  0.72628018  0.38736152     0.93900
C138        C  0.04476539  0.66456571  0.33504881     0.93100
C139        C  0.05349037  0.71336426  0.38754224     0.85200
C140        C  0.97442345  0.67678503  0.33573897     0.91500
O141        O  0.24891487  0.83171307  0.55537366    -0.72300
O142        O  0.20517019  0.79389872  0.50466087    -0.73200
O143        O  0.24609550  0.82991861  0.50081161    -0.61900
O144        O  0.20766961  0.79624952  0.55921368    -0.70300
O145        O  0.18033831  0.82881936  0.55915208    -0.69800
O146        O  0.21772219  0.86168508  0.50073930    -0.61100
O147        O  0.17712377  0.82611210  0.50529223    -0.73600
O148        O  0.22119905  0.86432682  0.55473662    -0.72400
Cu149      Cu  0.22798142  0.81177223  0.52999517     1.04600
Cu150      Cu  0.19817958  0.84633710  0.52998863     1.04300
C151        C  0.24186374  0.85403847  0.56293229     0.93900
C152        C  0.18414240  0.80396892  0.49714533     0.93100
C153        C  0.23794399  0.85134729  0.49160062     0.85200
C154        C  0.18774727  0.80732317  0.56850040     0.91500
O155        O  0.36209826  0.04072285  0.66347458    -0.72300
O156        O  0.38828792  0.98612817  0.71152103    -0.73200
O157        O  0.35709591  0.98644050  0.66775285    -0.61900
O158        O  0.39430338  0.04016723  0.70742442    -0.70300
O159        O  0.36036579  0.04539566  0.73259993    -0.69800
O160        O  0.32271811  0.99138475  0.69243066    -0.61100
O161        O  0.35396079  0.99127691  0.73626985    -0.73600
O162        O  0.32833025  0.04583627  0.68874149    -0.72400
Cu163      Cu  0.37663812  0.01331150  0.68665505     1.04600
Cu164      Cu  0.34015129  0.01880134  0.71335287     1.04300
C165        C  0.34076455  0.05179750  0.66835576     0.93900
C166        C  0.37483200  0.97957744  0.73110127     0.93100
C167        C  0.33446244  0.97971463  0.67422122     0.85200
C168        C  0.38357211  0.05080834  0.72677950     0.91500
O169        O  0.74494391  0.98287993  0.37537414    -0.72300
O170        O  0.71072751  0.03607192  0.33075159    -0.73200
O171        O  0.74251741  0.03754558  0.37507554    -0.61900
O172        O  0.71401884  0.98159259  0.33141873    -0.70300
O173        O  0.67914669  0.98030015  0.35602707    -0.69800
O174        O  0.70856877  0.03559473  0.40060351    -0.61100
O175        O  0.67699280  0.03472937  0.35653401    -0.73600
O176        O  0.71023591  0.98151692  0.39985132    -0.72400
Cu177      Cu  0.72927446  0.00970312  0.35226145     1.04600
Cu178      Cu  0.69252563  0.00807861  0.37906821     1.04300
C179        C  0.73262555  0.97334738  0.39450427     0.93900
C180        C  0.68801032  0.04350324  0.33644116     0.93100
C181        C  0.73068217  0.04486491  0.39526767     0.85200
C182        C  0.69234101  0.97174574  0.33713425     0.91500
O183        O  0.54374428  0.81478747  0.24061211    -0.72300
O184        O  0.59752247  0.78031313  0.19738563    -0.73200
O185        O  0.59766523  0.81655126  0.23803736    -0.61900
O186        O  0.54358472  0.77810319  0.20040667    -0.70300
O187        O  0.54111750  0.80977480  0.17166499    -0.69800
O188        O  0.59543681  0.84867208  0.20985235    -0.61100
O189        O  0.59484118  0.81220300  0.16914689    -0.73600
O190        O  0.54169712  0.84643382  0.21186135    -0.72400
Cu191      Cu  0.57079154  0.79630300  0.22007504     1.04600
Cu192      Cu  0.56826323  0.83036011  0.18960471     1.04300
C193        C  0.53432813  0.83626758  0.23303232     0.93900
C194        C  0.60426199  0.79051423  0.17602709     0.93100
C195        C  0.60439371  0.83904272  0.23064448     0.85200
C196        C  0.53381685  0.78775054  0.18006098     0.91500
O197        O  0.20869494  0.53761836  0.83499513    -0.72300
O198        O  0.24437088  0.48048117  0.87333327    -0.73200
O199        O  0.21034776  0.48324359  0.83126835    -0.61900
O200        O  0.24335997  0.53481224  0.87611912    -0.70300
O201        O  0.21098472  0.53204976  0.90379183    -0.69800
O202        O  0.17687787  0.48067598  0.85766746    -0.61100
O203        O  0.21084604  0.47765495  0.89967959    -0.73600
O204        O  0.17634028  0.53502476  0.86261409    -0.72400
Cu205      Cu  0.22781904  0.50912678  0.85294500     1.04600
Cu206      Cu  0.19258113  0.50627486  0.88187958     1.04300
C207        C  0.18691392  0.54555548  0.84305523     0.93900
C208        C  0.23309733  0.47018861  0.89270425     0.93100
C209        C  0.18870322  0.47355945  0.83730060     0.85200
C210        C  0.23258175  0.54161877  0.89705691     0.91500
O211        O  0.40118385  0.66729307  0.07930974    -0.72300
O212        O  0.35437309  0.63171756  0.03114501    -0.73200
O213        O  0.39682104  0.66480262  0.02526569    -0.61900
O214        O  0.35820058  0.63420956  0.08487254    -0.70300
O215        O  0.33215178  0.66776100  0.08547348    -0.69800
O216        O  0.37087377  0.69885368  0.02629637    -0.61100
O217        O  0.32829898  0.66563466  0.03134216    -0.73600
O218        O  0.37537792  0.70109593  0.08076309    -0.72400
Cu219      Cu  0.37856330  0.64838006  0.05521770     1.04600
Cu220      Cu  0.35079257  0.68459036  0.05606219     1.04300
C221        C  0.39601835  0.68975652  0.08775216     0.93900
C222        C  0.33397969  0.64292661  0.02365989     0.93100
C223        C  0.38962710  0.68658993  0.01626520     0.85200
C224        C  0.33859314  0.64559350  0.09422394     0.91500
O225        O  0.22075623  0.53251222  0.22200790    -0.72300
O226        O  0.17880137  0.47738011  0.25559495    -0.73200
O227        O  0.22300915  0.47799856  0.22321057    -0.61900
O228        O  0.17630917  0.53201734  0.25341709    -0.70300
O229        O  0.15130528  0.52927281  0.21906178    -0.69800
O230        O  0.19835987  0.47748694  0.18868131    -0.61100
O231        O  0.15451798  0.47484655  0.22063123    -0.73600
O232        O  0.19563020  0.53162046  0.18776929    -0.72400
Cu233      Cu  0.20055471  0.50503422  0.23983434     1.04600
Cu234      Cu  0.17407070  0.50320405  0.20288524     1.04300
C235        C  0.21501900  0.54084929  0.19966021     0.93900
C236        C  0.16019906  0.46726550  0.24332599     0.93100
C237        C  0.21828396  0.46966338  0.20058727     0.85200
C238        C  0.15635933  0.53902366  0.24092601     0.91500
O239        O  0.33939047  0.36054819  0.07290935    -0.72300
O240        O  0.37384606  0.31486697  0.02143100    -0.73200
O241        O  0.33594423  0.35392497  0.01898168    -0.61900
O242        O  0.37702882  0.32180387  0.07493998    -0.70300
O243        O  0.34731308  0.29196465  0.08110332    -0.69800
O244        O  0.30536744  0.32451036  0.02467308    -0.61100
O245        O  0.34384497  0.28516093  0.02677428    -0.73600
O246        O  0.30934517  0.33082706  0.07874378    -0.72400
Cu247      Cu  0.35754586  0.33876874  0.04679159     1.04600
Cu248      Cu  0.32536830  0.30703348  0.05294409     1.04300
C249        C  0.31916029  0.35266896  0.08444827     0.93900
C250        C  0.36470680  0.29258841  0.01613374     0.93100
C251        C  0.31401787  0.34464940  0.01330413     0.85200
C252        C  0.36880212  0.30215087  0.08724411     0.91500
O253        O  0.51890512  0.15252812  0.21503054    -0.72300
O254        O  0.56563527  0.20282558  0.18081893    -0.73200
O255        O  0.57229079  0.15964438  0.21274984    -0.61900
O256        O  0.51207492  0.19565931  0.18271053    -0.70300
O257        O  0.50986162  0.22160885  0.21650864    -0.69800
O258        O  0.57011332  0.18419836  0.24746133    -0.61100
O259        O  0.56436948  0.22806076  0.21531538    -0.73600
O260        O  0.51609783  0.17806998  0.24915957    -0.72400
Cu261      Cu  0.54226549  0.17686272  0.19665385     1.04600
Cu262      Cu  0.54000790  0.20397076  0.23333468     1.04300
C263        C  0.51033314  0.15715411  0.23755425     0.93900
C264        C  0.57270745  0.22310369  0.19273941     0.93100
C265        C  0.58072857  0.16587504  0.23491519     0.85200
C266        C  0.50128834  0.21420190  0.19471608     0.91500
O267        O  0.09337412  0.28079596  0.70105499    -0.72300
O268        O  0.03749612  0.31965578  0.73806548    -0.73200
O269        O  0.03941545  0.27945806  0.70144914    -0.61900
O270        O  0.09156378  0.32081245  0.73828635    -0.70300
O271        O  0.09102108  0.35029991  0.70738684    -0.69800
O272        O  0.03847938  0.30868713  0.67021490    -0.61100
O273        O  0.03733508  0.34899946  0.70675814    -0.73600
O274        O  0.09240958  0.31008284  0.67007795    -0.72400
Cu275      Cu  0.06557011  0.29917098  0.72081519     1.04600
Cu276      Cu  0.06489691  0.33051252  0.68749520     1.04300
C277        C  0.10119796  0.28890013  0.67915988     0.93900
C278        C  0.02869282  0.34044950  0.72812314     0.93100
C279        C  0.03073517  0.28738088  0.67991851     0.85200
C280        C  0.09879391  0.34257694  0.72940174     0.91500
O281        O  0.83390125  0.16747009  0.59030289    -0.72300
O282        O  0.86554101  0.19747596  0.52730114    -0.73200
O283        O  0.82221806  0.16682393  0.53735667    -0.61900
O284        O  0.87684162  0.19807469  0.58037884    -0.70300
O285        O  0.90143526  0.16375929  0.57511070    -0.69800
O286        O  0.84567752  0.13137095  0.53321153    -0.61100
O287        O  0.88889272  0.16230291  0.52182429    -0.73600
O288        O  0.85841214  0.13293054  0.58638649    -0.72400
Cu289      Cu  0.84884737  0.18364168  0.55898974     1.04600
Cu290      Cu  0.87444971  0.14630611  0.55396990     1.04300
C291        C  0.84136432  0.14563856  0.59875019     0.93900
C292        C  0.88201010  0.18471171  0.51425857     0.93100
C293        C  0.82540546  0.14428260  0.52811972     0.85200
C294        C  0.89768203  0.18598749  0.58495313     0.91500
O295        O  0.17431098  0.16928029  0.47655317    -0.72300
O296        O  0.22175200  0.13472675  0.52548486    -0.73200
O297        O  0.18067783  0.16970954  0.53048853    -0.61900
O298        O  0.21612113  0.13411885  0.47159164    -0.70300
O299        O  0.24273342  0.16728719  0.46789432    -0.69800
O300        O  0.20837150  0.20219133  0.52734995    -0.61100
O301        O  0.24926061  0.16716525  0.52183045    -0.73600
O302        O  0.20092029  0.20252621  0.47332986    -0.72400
Cu303      Cu  0.19724546  0.15083715  0.50101755     1.04600
Cu304      Cu  0.22623366  0.18596853  0.49733201     1.04300
C305        C  0.17971080  0.19156895  0.46757505     0.93900
C306        C  0.24292024  0.14535728  0.53155910     0.93100
C307        C  0.18927178  0.19138286  0.53842376     0.85200
C308        C  0.23574562  0.14468794  0.46110853     0.91500
O309        O  0.40701904  0.01460309  0.34389293    -0.72300
O310        O  0.36849195  0.95850898  0.37884590    -0.73200
O311        O  0.41194176  0.96042296  0.34655663    -0.61900
O312        O  0.36370831  0.01234664  0.37607031    -0.70300
O313        O  0.33841142  0.00858641  0.34198453    -0.69800
O314        O  0.38739713  0.95660753  0.31230065    -0.61100
O315        O  0.34349765  0.95407020  0.34485635    -0.73600
O316        O  0.38200988  0.01148167  0.30975931    -0.72400
Cu317      Cu  0.38868225  0.98655743  0.36242433     1.04600
Cu318      Cu  0.36199088  0.98247545  0.32592917     1.04300
C319        C  0.40029225  0.02264579  0.32174598     0.93900
C320        C  0.34968056  0.94753706  0.36777378     0.93100
C321        C  0.40750020  0.95008631  0.32480629     0.85200
C322        C  0.34337949  0.01847236  0.36390231     0.91500
O323        O  0.03149073  0.32168955  0.31807178    -0.72300
O324        O  0.97752355  0.28201747  0.35700408    -0.73200
O325        O  0.97751349  0.32242209  0.31920569    -0.61900
O326        O  0.03158162  0.28137685  0.35531285    -0.70300
O327        O  0.03173618  0.30993406  0.38709177    -0.69800
O328        O  0.97944611  0.35214056  0.34951073    -0.61100
O329        O  0.97797012  0.31208609  0.38720664    -0.73600
O330        O  0.03309595  0.35004155  0.35008397    -0.72400
Cu331      Cu  0.00437061  0.30082153  0.33630300     1.04600
Cu332      Cu  0.00547538  0.33203222  0.36955139     1.04300
C333        C  0.04079292  0.34210217  0.32819446     0.93900
C334        C  0.96978359  0.29048265  0.37874248     0.93100
C335        C  0.97087305  0.34448309  0.32779014     0.85200
C336        C  0.03998062  0.28903012  0.37705204     0.91500
C337        C  0.07926349  0.25305223  0.42713283    -0.11200
C338        C  0.10143471  0.24765360  0.41278078     0.11400
C339        C  0.10291540  0.25475763  0.38655411    -0.03000
C340        C  0.08189954  0.26742582  0.37544177    -0.05700
C341        C  0.06021353  0.27406053  0.39002788    -0.16500
C342        C  0.05845547  0.26633148  0.41616592     0.02400
C343        C  0.12273769  0.23422412  0.42577759     0.12400
C344        C  0.12682990  0.24950940  0.37064623     0.63000
H345        H  0.08240125  0.27258654  0.35532027     0.12400
C346        C  0.03433402  0.27088588  0.43197140     0.55100
H347        H  0.07857819  0.24697931  0.44706442     0.08200
C348        C  0.14021946  0.24708930  0.44215751    -0.05600
C349        C  0.15884255  0.23236542  0.45491824    -0.06400
C350        C  0.16066448  0.20548965  0.45170281    -0.15900
C351        C  0.14367847  0.19279585  0.43455698    -0.01500
C352        C  0.12468224  0.20748095  0.42221251    -0.09100
C353        C  0.14020362  0.27601569  0.44717484     0.65200
H354        H  0.17181644  0.24201618  0.46803147     0.10600
C355        C  0.14566179  0.16409014  0.42878816     0.63600
H356        H  0.11090577  0.19813445  0.40975339     0.08000
F357        F  0.03069791  0.29704325  0.43580337    -0.19500
F358        F  0.03565378  0.25911294  0.45589435    -0.15700
F359        F  0.01342264  0.26076891  0.41915164    -0.19200
F360        F  0.13079722  0.22318630  0.36868790    -0.22600
F361        F  0.14787965  0.26075277  0.38228240    -0.24000
F362        F  0.12485602  0.25951287  0.34599074    -0.18000
F363        F  0.13070575  0.15718193  0.40792441    -0.20500
F364        F  0.13740076  0.14987125  0.44980453    -0.21700
F365        F  0.17081071  0.15771443  0.42303707    -0.18900
F366        F  0.16417618  0.28596889  0.44135538    -0.18900
F367        F  0.13511929  0.28031299  0.47295626    -0.22800
F368        F  0.12236702  0.28946555  0.43281259    -0.24400
C369        C  0.29141043  0.11344385  0.42504458    -0.11200
C370        C  0.27831641  0.09545060  0.40994939     0.11400
C371        C  0.25120928  0.09476263  0.41025551    -0.03000
C372        C  0.23795685  0.11239061  0.42600742    -0.05700
C373        C  0.25101595  0.12993506  0.44193637    -0.16500
C374        C  0.27833505  0.13062016  0.44135878     0.02400
C375        C  0.29379088  0.07556255  0.39664075     0.12400
C376        C  0.23647360  0.07456431  0.39512057     0.63000
H377        H  0.21719627  0.11181628  0.42685840     0.12400
C378        C  0.29390443  0.14807567  0.45890989     0.55100
H379        H  0.31219046  0.11308714  0.42469900     0.08200
C380        C  0.30561666  0.08002199  0.37246988    -0.05600
C381        C  0.32100352  0.06039168  0.36186375    -0.06400
C382        C  0.32561019  0.03731339  0.37529871    -0.15900
C383        C  0.31388126  0.03294930  0.39952390    -0.01500
C384        C  0.29800942  0.05226438  0.40977135    -0.09100
C385        C  0.30277079  0.10566968  0.35849183     0.65200
H386        H  0.33040930  0.06329831  0.34349274     0.10600
C387        C  0.31779974  0.00787820  0.41429111     0.63600
H388        H  0.28909971  0.04959583  0.42842636     0.08000
F389        F  0.28961994  0.17367018  0.45256352    -0.19500
F390        F  0.32000681  0.14356506  0.45674927    -0.15700
F391        F  0.28703223  0.14374176  0.48429750    -0.19200
F392        F  0.24115013  0.05034239  0.40535361    -0.22600
F393        F  0.24407551  0.07482444  0.36961622    -0.24000
F394        F  0.21028839  0.07893617  0.39592124    -0.18000
F395        F  0.34306353  0.00585024  0.42205189    -0.20500
F396        F  0.31172763  0.98710960  0.39875707    -0.21700
F397        F  0.30244664  0.00658872  0.43604750    -0.18900
F398        F  0.31453921  0.10531745  0.33456466    -0.18900
F399        F  0.31391539  0.12508440  0.37286158    -0.22800
F400        F  0.27713434  0.11136501  0.35491822    -0.24400
C401        C  0.92573400  0.20365587  0.45796702    -0.11200
C402        C  0.91299674  0.22579889  0.44929542     0.11400
C403        C  0.88876753  0.23234108  0.45945060    -0.03000
C404        C  0.87900684  0.21754729  0.47986806    -0.05700
C405        C  0.89267834  0.19654318  0.49037118    -0.16500
C406        C  0.91610003  0.18872914  0.47850084     0.02400
C407        C  0.92665318  0.24304939  0.43122632     0.12400
C408        C  0.87361424  0.25517403  0.44909042     0.63000
H409        H  0.86070670  0.22282700  0.48821250     0.12400
C410        C  0.93148601  0.16550551  0.48759966     0.55100
H411        H  0.94400004  0.19892893  0.44917867     0.08200
C412        C  0.94439213  0.26150798  0.44030237    -0.05600
C413        C  0.95683640  0.27738809  0.42235037    -0.06400
C414        C  0.95314631  0.27453172  0.39569304    -0.15900
C415        C  0.93534035  0.25587610  0.38663053    -0.01500
C416        C  0.92219222  0.24049867  0.40478219    -0.09100
C417        C  0.95092801  0.26374374  0.46875547     0.65200
H418        H  0.97066581  0.29137911  0.42909621     0.10600
C419        C  0.93006700  0.25207108  0.35817420     0.63600
H420        H  0.90870132  0.22594369  0.39851104     0.08000
F421        F  0.93842144  0.16867958  0.51307339    -0.19500
F422        F  0.95378348  0.16222031  0.47341224    -0.15700
F423        F  0.91700485  0.14326778  0.48496204    -0.19200
F424        F  0.86864715  0.25153731  0.42323520    -0.22600
F425        F  0.88745343  0.27775337  0.45209776    -0.24000
F426        F  0.85035596  0.25809138  0.46169777    -0.18000
F427        F  0.90904575  0.23622995  0.35415336    -0.20500
F428        F  0.95107582  0.24068326  0.34651976    -0.21700
F429        F  0.92508067  0.27563696  0.34659281    -0.18900
F430        F  0.96763007  0.28398354  0.47348718    -0.18900
F431        F  0.96252325  0.24120811  0.47704967    -0.22800
F432        F  0.92894665  0.26787950  0.48310210    -0.24400
C433        C  0.95627572  0.19975124  0.62702875    -0.11200
C434        C  0.95292708  0.22619695  0.63126549     0.11400
C435        C  0.93118712  0.23908341  0.62153800    -0.03000
C436        C  0.91383903  0.22503224  0.60661385    -0.05700
C437        C  0.91723427  0.19851454  0.60154713    -0.16500
C438        C  0.93844366  0.18531686  0.61279056     0.02400
C439        C  0.97346661  0.24048662  0.64433017     0.12400
C440        C  0.92648084  0.26763632  0.62667165     0.63000
H441        H  0.89756949  0.23503373  0.59842042     0.12400
C442        C  0.94236883  0.15630940  0.61045796     0.55100
H443        H  0.97326762  0.19060435  0.63478284     0.08200
C444        C  0.97516422  0.24171029  0.67138590    -0.05600
C445        C  0.99388418  0.25779368  0.68215620    -0.06400
C446        C  0.01129737  0.27167567  0.66666809    -0.15900
C447        C  0.01050633  0.26905082  0.63950573    -0.01500
C448        C  0.99128786  0.25350892  0.62881408    -0.09100
C449        C  0.95785079  0.22557080  0.68868735     0.65200
H450        H  0.99517446  0.25949544  0.70284841     0.10600
C451        C  0.03012522  0.28175135  0.62181701     0.63600
H452        H  0.98971665  0.25159910  0.60814663     0.08000
F453        F  0.96253392  0.14769894  0.62551426    -0.19500
F454        F  0.94784765  0.14991811  0.58521204    -0.15700
F455        F  0.92049065  0.14345291  0.61856439    -0.19200
F456        F  0.94557574  0.28231568  0.61530726    -0.22600
F457        F  0.92635593  0.27222176  0.65286648    -0.24000
F458        F  0.90315088  0.27581796  0.61693774    -0.18000
F459        F  0.02765841  0.27346433  0.59662754    -0.20500
F460        F  0.05466902  0.27566361  0.62989723    -0.21700
F461        F  0.02690302  0.30826410  0.62197597    -0.18900
F462        F  0.96170153  0.23098525  0.71447246    -0.18900
F463        F  0.96299171  0.19966311  0.68484946    -0.22800
F464        F  0.93235817  0.23023378  0.68313747    -0.24400
C465        C  0.13754494  0.23338249  0.64682204    -0.11200
C466        C  0.14771071  0.24628458  0.62538105     0.11400
C467        C  0.14514458  0.27337607  0.62323893    -0.03000
C468        C  0.13138013  0.28660802  0.64235533    -0.05700
C469        C  0.11961214  0.27365764  0.66317042    -0.16500
C470        C  0.12365150  0.24654572  0.66604759     0.02400
C471        C  0.15861670  0.23067586  0.60413997     0.12400
C472        C  0.15606621  0.28813664  0.60032810     0.63000
H473        H  0.12880018  0.30727736  0.64047643     0.12400
C474        C  0.11282860  0.23112896  0.68854296     0.55100
H475        H  0.13979103  0.21260093  0.64778969     0.08200
C476        C  0.18427722  0.22180178  0.60417439    -0.05600
C477        C  0.19354763  0.20892046  0.58223019    -0.06400
C478        C  0.17766197  0.20393513  0.56103943    -0.15900
C479        C  0.15165802  0.21171198  0.56157118    -0.01500
C480        C  0.14254169  0.22497732  0.58330676    -0.09100
C481        C  0.20157455  0.22566284  0.62732236     0.65200
H482        H  0.21329661  0.20241526  0.58148039     0.10600
C483        C  0.13395006  0.20689031  0.53893959     0.63600
H484        H  0.12280783  0.23151719  0.58407785     0.08000
F485        F  0.12215433  0.24093158  0.71142547    -0.19500
F486        F  0.11974184  0.20532285  0.68742135    -0.15700
F487        F  0.08631708  0.23233288  0.68843196    -0.19200
F488        F  0.14381957  0.28057577  0.57802869    -0.22600
F489        F  0.18202091  0.28326012  0.59791318    -0.24000
F490        F  0.15289554  0.31456265  0.60291108    -0.18000
F491        F  0.13068731  0.18061765  0.53550525    -0.20500
F492        F  0.14441569  0.21755196  0.51683095    -0.21700
F493        F  0.10997855  0.21777162  0.54272025    -0.18900
F494        F  0.22594252  0.21588000  0.62309817    -0.18900
F495        F  0.19125579  0.21307351  0.64845290    -0.22800
F496        F  0.20386112  0.25166363  0.63283686    -0.24400
C497        C  0.48175883  0.09492412  0.26323619    -0.11200
C498        C  0.45813438  0.10382455  0.27253099     0.11400
C499        C  0.45226458  0.13049085  0.27186232    -0.03000
C500        C  0.47015775  0.14740875  0.26062753    -0.05700
C501        C  0.49325735  0.13833011  0.25010499    -0.16500
C502        C  0.49960400  0.11177992  0.25193601     0.02400
C503        C  0.44096315  0.08465611  0.28460217     0.12400
C504        C  0.42730836  0.14096997  0.28286905     0.63000
H505        H  0.46617355  0.16787196  0.25981927     0.12400
C506        C  0.52548486  0.10144259  0.24318440     0.55100
H507        H  0.48607456  0.07452696  0.26499531     0.08200
C508        C  0.42632449  0.06711415  0.26991785    -0.05600
C509        C  0.41301075  0.04734958  0.28285494    -0.06400
C510        C  0.41380502  0.04490218  0.30982690    -0.15900
C511        C  0.42722621  0.06375097  0.32452035    -0.01500
C512        C  0.44121493  0.08283381  0.31141589    -0.09100
C513        C  0.42516771  0.06903678  0.24074836     0.65200
H514        H  0.40242317  0.03322748  0.27183594     0.10600
C515        C  0.42668402  0.06444036  0.35379690     0.63600
H516        H  0.45293786  0.09637485  0.32202830     0.08000
F517        F  0.52877368  0.07577606  0.25000320    -0.19500
F518        F  0.54493140  0.11555949  0.25452395    -0.15700
F519        F  0.52763637  0.10319655  0.21672179    -0.19200
F520        F  0.42636689  0.13666810  0.30911525    -0.22600
F521        F  0.40666227  0.12883529  0.27144261    -0.24000
F522        F  0.42488835  0.16729511  0.27871507    -0.18000
F523        F  0.43697463  0.08716690  0.36328958    -0.20500
F524        F  0.44090011  0.04417674  0.36366469    -0.21700
F525        F  0.40162047  0.06283798  0.36253881    -0.18900
F526        F  0.40775237  0.05171837  0.23047625    -0.18900
F527        F  0.44900857  0.06380271  0.23029749    -0.22800
F528        F  0.41776281  0.09364022  0.23349093    -0.24400
C529        C  0.43708717  0.24736449  0.18216148    -0.11200
C530        C  0.43850708  0.25052982  0.15542050     0.11400
C531        C  0.46038702  0.24192595  0.14175278    -0.03000
C532        C  0.48041504  0.23041421  0.15555977    -0.05700
C533        C  0.47926627  0.22730011  0.18239155    -0.16500
C534        C  0.45704676  0.23546952  0.19600257     0.02400
C535        C  0.41762329  0.26436683  0.14207760     0.12400
C536        C  0.46273023  0.24521619  0.11272868     0.63000
H537        H  0.49745440  0.22403182  0.14543795     0.12400
C538        C  0.45382220  0.23072891  0.22465508     0.55100
H539        H  0.42018275  0.25438803  0.19207978     0.08200
C540        C  0.39564605  0.25158718  0.13269369    -0.05600
C541        C  0.37956809  0.26492264  0.11551180    -0.06400
C542        C  0.38461546  0.29066177  0.10814295    -0.15900
C543        C  0.40494536  0.30429853  0.12044114    -0.01500
C544        C  0.42121596  0.29064153  0.13707424    -0.09100
C545        C  0.38950722  0.22400183  0.14063372     0.65200
H546        H  0.36344918  0.25493150  0.10703182     0.10600
C547        C  0.41003798  0.33294421  0.11617918     0.63600
H548        H  0.43781036  0.30005247  0.14535144     0.08000
F549        F  0.45779168  0.20486953  0.22996103    -0.19500
F550        F  0.42942503  0.23708162  0.23314684    -0.15700
F551        F  0.47121631  0.24548898  0.23824231    -0.19200
F552        F  0.46351102  0.27118960  0.10652232    -0.22600
F553        F  0.44197892  0.23394487  0.10063306    -0.24000
F554        F  0.48479027  0.23381163  0.10315215    -0.18000
F555        F  0.38746209  0.34676758  0.11876819    -0.20500
F556        F  0.42035032  0.33690705  0.09192581    -0.21700
F557        F  0.42726903  0.34266562  0.13393507    -0.18900
F558        F  0.36689886  0.21533243  0.12971432    -0.18900
F559        F  0.38680074  0.22269666  0.16708994    -0.22800
F560        F  0.40906224  0.20763296  0.13310460    -0.24400
C561        C  0.27693849  0.43182482  0.17682307    -0.11200
C562        C  0.26628677  0.41945356  0.15542634     0.11400
C563        C  0.23990212  0.42218247  0.14999878    -0.03000
C564        C  0.22499794  0.43775438  0.16614687    -0.05700
C565        C  0.23557213  0.45116645  0.18713920    -0.16500
C566        C  0.26210547  0.44797698  0.19282092     0.02400
C567        C  0.28287027  0.40311376  0.13908399     0.12400
C568        C  0.22756592  0.40891261  0.12703108     0.63000
H569        H  0.20471125  0.43979628  0.16213881     0.12400
C570        C  0.27503881  0.46178243  0.21505604     0.55100
H571        H  0.29716940  0.42890466  0.18064178     0.08200
C572        C  0.29722605  0.41344248  0.11836156    -0.05600
C573        C  0.30898760  0.39624143  0.10110162    -0.06400
C574        C  0.30699381  0.36929219  0.10421508    -0.15900
C575        C  0.29419614  0.35914519  0.12624309    -0.01500
C576        C  0.28234348  0.37642491  0.14333400    -0.09100
C577        C  0.30012838  0.44243657  0.11464591     0.65200
H578        H  0.31947778  0.40378057  0.08471048     0.10600
C579        C  0.29303413  0.33037179  0.13204087     0.63600
H580        H  0.27156845  0.36920231  0.15969990     0.08000
F581        F  0.27203146  0.48821797  0.21241620    -0.19500
F582        F  0.30109911  0.45669706  0.21600755    -0.15700
F583        F  0.26436300  0.45365385  0.23810335    -0.19200
F584        F  0.22900875  0.38240885  0.12995132    -0.22600
F585        F  0.24005525  0.41599754  0.10458030    -0.24000
F586        F  0.20195383  0.41547235  0.12443813    -0.18000
F587        F  0.31735512  0.31977318  0.13052505    -0.20500
F588        F  0.27701460  0.31827888  0.11465818    -0.21700
F589        F  0.28361743  0.32549358  0.15653123    -0.18900
F590        F  0.31409546  0.44837623  0.09269800    -0.18900
F591        F  0.31281316  0.45279050  0.13555097    -0.22800
F592        F  0.27632505  0.45399401  0.11251191    -0.24400
C593        C  0.10255840  0.37570623  0.30996304    -0.11200
C594        C  0.09388648  0.39200632  0.29028056     0.11400
C595        C  0.06824486  0.39031384  0.28152219    -0.03000
C596        C  0.05158388  0.37283735  0.29381158    -0.05700
C597        C  0.05999529  0.35741954  0.31429910    -0.16500
C598        C  0.08582806  0.35845190  0.32238662     0.02400
C599        C  0.11204248  0.41106024  0.27949596     0.12400
C600        C  0.05859853  0.40699900  0.25947430     0.63000
H601        H  0.03167791  0.37155542  0.28802414     0.12400
C602        C  0.09558423  0.34107996  0.34374330     0.55100
H603        H  0.12240926  0.37709679  0.31588495     0.08200
C604        C  0.11547532  0.43560287  0.29091550    -0.05600
C605        C  0.13149300  0.45355706  0.27845426    -0.06400
C606        C  0.14470782  0.44710631  0.25582785    -0.15900
C607        C  0.14323555  0.42172889  0.24592772    -0.01500
C608        C  0.12634893  0.40413152  0.25771975    -0.09100
C609        C  0.10274871  0.44245676  0.31636816     0.65200
H610        H  0.13381392  0.47281462  0.28622978     0.10600
C611        C  0.16037563  0.41304545  0.22392325     0.63600
H612        H  0.12416245  0.38479832  0.25009587     0.08000
F613        F  0.12166672  0.34406946  0.34770500    -0.19500
F614        F  0.09106489  0.31564775  0.33722111    -0.15700
F615        F  0.08303052  0.34664586  0.36654260    -0.19200
F616        F  0.07229038  0.40141272  0.23735629    -0.22600
F617        F  0.06169990  0.43286317  0.26525789    -0.24000
F618        F  0.03284497  0.40274963  0.25455526    -0.18000
F619        F  0.15759868  0.38693353  0.21891355    -0.20500
F620        F  0.18576672  0.41753219  0.23023010    -0.21700
F621        F  0.15445524  0.42655003  0.20175032    -0.18900
F622        F  0.10804704  0.46761196  0.32362747    -0.18900
F623        F  0.11168768  0.42615934  0.33546907    -0.22800
F624        F  0.07642686  0.43982456  0.31460473    -0.24400
C625        C  0.26320161  0.59493292  0.18628003    -0.11200
C626        C  0.26567621  0.59279799  0.15954331     0.11400
C627        C  0.25063770  0.57467687  0.14592869    -0.03000
C628        C  0.23355668  0.55895047  0.15980583    -0.05700
C629        C  0.23163093  0.56025419  0.18675083    -0.16500
C630        C  0.24633121  0.57895755  0.20030785     0.02400
C631        C  0.28556672  0.60833131  0.14629465     0.12400
C632        C  0.25328148  0.57134606  0.11695510     0.63000
H633        H  0.22238471  0.54456343  0.14968899     0.12400
C634        C  0.24450303  0.58221107  0.22932351     0.55100
H635        H  0.27525811  0.60876144  0.19616420     0.08200
C636        C  0.28099662  0.63374883  0.13765632    -0.05600
C637        C  0.29945778  0.64559957  0.12174857    -0.06400
C638        C  0.32222147  0.63280608  0.11426621    -0.15900
C639        C  0.32746920  0.60787650  0.12488005    -0.01500
C640        C  0.30898879  0.59635497  0.14098596    -0.09100
C641        C  0.25659530  0.64803094  0.14501832     0.65200
H642        H  0.29568351  0.66480005  0.11439132     0.10600
C643        C  0.35178377  0.59273845  0.11899192     0.63600
H644        H  0.31200435  0.57708091  0.14858983     0.08000
F645        F  0.21905792  0.58384545  0.23680116    -0.19500
F646        F  0.25672521  0.60447293  0.23750083    -0.15700
F647        F  0.25600287  0.56145113  0.24149146    -0.19200
F648        F  0.27749926  0.56220879  0.11105257    -0.22600
F649        F  0.24956093  0.59473930  0.10462776    -0.24000
F650        F  0.23554610  0.55396450  0.10735931    -0.18000
F651        F  0.37311149  0.60748487  0.12484174    -0.20500
F652        F  0.35224549  0.58590297  0.09327832    -0.21700
F653        F  0.35332223  0.57016349  0.13328252    -0.18900
F654        F  0.25560780  0.67245070  0.13412127    -0.18900
F655        F  0.25544204  0.65075104  0.17146065    -0.22800
F656        F  0.23531418  0.63439309  0.13687076    -0.24400
C657        C  0.17951254  0.41528864  0.79451219    -0.11200
C658        C  0.15379370  0.41835147  0.78766708     0.11400
C659        C  0.13915881  0.43904288  0.79769402    -0.03000
C660        C  0.15136172  0.45682878  0.81387606    -0.05700
C661        C  0.17729104  0.45406605  0.82040210    -0.16500
C662        C  0.19164758  0.43279782  0.81098120     0.02400
C663        C  0.14196462  0.39793710  0.77214084     0.12400
C664        C  0.11076931  0.44200909  0.79165158     0.63000
H665        H  0.14075636  0.47305512  0.82160620     0.12400
C666        C  0.21922725  0.42787266  0.81908246     0.55100
H667        H  0.18986620  0.39875593  0.78708421     0.08200
C668        C  0.14326105  0.39778745  0.74502819    -0.05600
C669        C  0.12981429  0.37849061  0.73181657    -0.06400
C670        C  0.11529631  0.35966606  0.74497435    -0.15900
C671        C  0.11503869  0.35939965  0.77241007    -0.01500
C672        C  0.12896928  0.37842047  0.78540081    -0.09100
C673        C  0.15872240  0.41787603  0.73026983     0.65200
H674        H  0.13020615  0.37824987  0.71097145     0.10600
C675        C  0.09930111  0.34029094  0.78825490     0.63600
H676        H  0.12910785  0.37892478  0.80625537     0.08000
F677        F  0.22784171  0.40391188  0.81102572    -0.19500
F678        F  0.22107033  0.42859286  0.84562715    -0.15700
F679        F  0.23519468  0.44640304  0.80845033    -0.19200
F680        F  0.09725727  0.42113707  0.80135588    -0.22600
F681        F  0.10716488  0.44328822  0.76533801    -0.24000
F682        F  0.10059080  0.46420862  0.80240708    -0.18000
F683        F  0.10830651  0.31547242  0.78437152    -0.20500
F684        F  0.07373957  0.34181209  0.78131408    -0.21700
F685        F  0.10072783  0.34527649  0.81438965    -0.18900
F686        F  0.15628562  0.41495321  0.70390711    -0.18900
F687        F  0.18439321  0.41551181  0.73643024    -0.22800
F688        F  0.15052313  0.44245572  0.73657214    -0.24400
C689        C  0.24839879  0.59417498  0.94522820    -0.11200
C690        C  0.27495378  0.59072755  0.94720525     0.11400
C691        C  0.28768770  0.57217327  0.93192165    -0.03000
C692        C  0.27300879  0.55718000  0.91516039    -0.05700
C693        C  0.24621995  0.55973161  0.91390290    -0.16500
C694        C  0.23364049  0.57904636  0.92850874     0.02400
C695        C  0.28867531  0.60534080  0.96702576     0.12400
C696        C  0.31644954  0.56758239  0.93393086     0.63000
H697        H  0.28230543  0.54251087  0.90363600     0.12400
C698        C  0.20504189  0.58409779  0.92621900     0.55100
H699        H  0.23926955  0.60842205  0.95741106     0.08200
C700        C  0.29695094  0.63103977  0.96302293    -0.05600
C701        C  0.31113457  0.64300675  0.98253022    -0.06400
C702        C  0.31732597  0.62978589  0.00526883    -0.15900
C703        C  0.30828724  0.60431550  0.00954171    -0.01500
C704        C  0.29363077  0.59265156  0.99028903    -0.09100
C705        C  0.29104598  0.64550460  0.93825613     0.65200
H706        H  0.31817755  0.66256063  0.97988844     0.10600
C707        C  0.31386292  0.58956032  0.03424138     0.63600
H708        H  0.28652216  0.57311098  0.99284253     0.08000
F709        F  0.19794039  0.60662699  0.93865313    -0.19500
F710        F  0.19142674  0.56392223  0.93717256    -0.15700
F711        F  0.19838645  0.58658620  0.90056490    -0.19200
F712        F  0.32225393  0.55750116  0.95787126    -0.22600
F713        F  0.32962126  0.59053194  0.93054076    -0.24000
F714        F  0.32510677  0.55034516  0.91551305    -0.18000
F715        F  0.30034141  0.56654655  0.03554295    -0.20500
F716        F  0.30696533  0.60432898  0.05529942    -0.21700
F717        F  0.33969689  0.58371156  0.03556313    -0.18900
F718        F  0.30190197  0.66992984  0.93799801    -0.18900
F719        F  0.26481303  0.64823020  0.93560579    -0.22800
F720        F  0.30055370  0.63205111  0.91735774    -0.24400
C721        C  0.27855775  0.43283354  0.93569502    -0.11200
C722        C  0.26479228  0.40977845  0.93909986     0.11400
C723        C  0.24076115  0.40647242  0.92699300    -0.03000
C724        C  0.23163292  0.42632973  0.91097372    -0.05700
C725        C  0.24546508  0.44934879  0.90743630    -0.16500
C726        C  0.26913003  0.45296136  0.92020998     0.02400
C727        C  0.27551699  0.39025174  0.95688938     0.12400
C728        C  0.22449597  0.38254830  0.93170741     0.63000
H729        H  0.21319007  0.42437110  0.90160363     0.12400
C730        C  0.28340499  0.47851721  0.91889736     0.55100
H731        H  0.29652201  0.43513096  0.94587566     0.08200
C732        C  0.29572367  0.37359411  0.94943826    -0.05600
C733        C  0.30703460  0.35772775  0.96825867    -0.06400
C734        C  0.29854313  0.35812983  0.99388146    -0.15900
C735        C  0.27770755  0.37406494  0.00108590    -0.01500
C736        C  0.26656973  0.39007526  0.98235203    -0.09100
C737        C  0.30571964  0.37319694  0.92194879     0.65200
H738        H  0.32319713  0.34556909  0.96335122     0.10600
C739        C  0.26825866  0.37511006  0.02871947     0.63600
H740        H  0.25137053  0.40329517  0.98759722     0.08000
F741        F  0.30513194  0.47845142  0.93415752    -0.19500
F742        F  0.26750141  0.49810231  0.92741964    -0.15700
F743        F  0.29095957  0.48358849  0.89386425    -0.19200
F744        F  0.21664018  0.38186782  0.95713554    -0.22600
F745        F  0.23850745  0.36052591  0.92641020    -0.24000
F746        F  0.20281378  0.38230815  0.91638754    -0.18000
F747        F  0.24769339  0.39178229  0.03158817    -0.20500
F748        F  0.28783174  0.38357330  0.04446726    -0.21700
F749        F  0.26047431  0.35078223  0.03658207    -0.18900
F750        F  0.32385114  0.35400311  0.91834228    -0.18900
F751        F  0.31697877  0.39666184  0.91600820    -0.22800
F752        F  0.28575546  0.36873428  0.90507906    -0.24400
C753        C  0.45315968  0.70515578  0.13076871    -0.11200
C754        C  0.45148844  0.73206779  0.13183327     0.11400
C755        C  0.43079759  0.74502832  0.12001897    -0.03000
C756        C  0.41264618  0.73034004  0.10653189    -0.05700
C757        C  0.41455482  0.70326171  0.10471360    -0.16500
C758        C  0.43463745  0.69026981  0.11806840     0.02400
C759        C  0.47244173  0.74615604  0.14465135     0.12400
C760        C  0.42826898  0.77425776  0.12119820     0.63000
H761        H  0.39725803  0.74013547  0.09657368     0.12400
C762        C  0.43668818  0.66097654  0.11958036     0.55100
H763        H  0.46940158  0.69589887  0.13988015     0.08200
C764        C  0.47383656  0.74814954  0.17173084    -0.05600
C765        C  0.49431211  0.76198718  0.18240482    -0.06400
C766        C  0.51328509  0.77345541  0.16690369    -0.15900
C767        C  0.51261427  0.77020611  0.13984356    -0.01500
C768        C  0.49193837  0.75658841  0.12914901    -0.09100
C769        C  0.45390246  0.73567789  0.18922776     0.65200
H770        H  0.49564274  0.76402797  0.20308161     0.10600
C771        C  0.53404440  0.77998489  0.12246349     0.63600
H772        H  0.49075814  0.75391297  0.10851120     0.08000
F773        F  0.45463941  0.65315440  0.13758265    -0.19500
F774        F  0.44411485  0.65112348  0.09599476    -0.15700
F775        F  0.41330286  0.65053385  0.12683813    -0.19200
F776        F  0.44842114  0.78569515  0.10809055    -0.22600
F777        F  0.42859491  0.78239399  0.14651333    -0.24000
F778        F  0.40559962  0.78274508  0.11024178    -0.18000
F779        F  0.55746025  0.77123767  0.13144576    -0.20500
F780        F  0.53404664  0.80668577  0.12196351    -0.21700
F781        F  0.53125195  0.77137109  0.09741853    -0.18900
F782        F  0.45856898  0.74080672  0.21493148    -0.18900
F783        F  0.45419501  0.70917538  0.18607741    -0.22800
F784        F  0.42974934  0.74490825  0.18333381    -0.24400
C785        C  0.47712373  0.85376667  0.27541674    -0.11200
C786        C  0.47889265  0.88078177  0.27483978     0.11400
C787        C  0.49960580  0.89295323  0.26202780    -0.03000
C788        C  0.51740016  0.87746676  0.24899442    -0.05700
C789        C  0.51539719  0.85040063  0.24884939    -0.16500
C790        C  0.49516270  0.83816717  0.26258350     0.02400
C791        C  0.45912645  0.89609147  0.28833870     0.12400
C792        C  0.50295699  0.92215968  0.26222930     0.63000
H793        H  0.53324691  0.88645121  0.23885669     0.12400
C794        C  0.49212277  0.80899756  0.26318470     0.55100
H795        H  0.46137567  0.84506616  0.28594773     0.08200
C796        C  0.43590819  0.90317529  0.27639410    -0.05600
C797        C  0.41952078  0.92040147  0.28926881    -0.06400
C798        C  0.42558775  0.93064177  0.31365922    -0.15900
C799        C  0.44852953  0.92216651  0.32611900    -0.01500
C800        C  0.46467274  0.90477282  0.31311582    -0.09100
C801        C  0.42864765  0.89266416  0.25010442     0.65200
H802        H  0.40191691  0.92625970  0.27999455     0.10600
C803        C  0.45670763  0.93142056  0.35263831     0.63600
H804        H  0.48245690  0.89841885  0.32176029     0.08000
F805        F  0.49166357  0.79950357  0.23834546    -0.19500
F806        F  0.46958850  0.80151866  0.27526461    -0.15700
F807        F  0.51233800  0.79803188  0.27647443    -0.19200
F808        F  0.50666727  0.93057698  0.28716375    -0.22600
F809        F  0.48140680  0.93401831  0.25224732    -0.24000
F810        F  0.52390774  0.92995505  0.24770812    -0.18000
F811        F  0.43796135  0.92544052  0.37058991    -0.20500
F812        F  0.46090396  0.95781441  0.35209814    -0.21700
F813        F  0.47924546  0.91984071  0.36072860    -0.18900
F814        F  0.40527436  0.90218272  0.24178813    -0.18900
F815        F  0.42684751  0.86603405  0.25128018    -0.22800
F816        F  0.44705047  0.89939981  0.23207551    -0.24400
C817        C  0.77922140  0.08193454  0.43553566    -0.11200
C818        C  0.76284882  0.09406148  0.45307347     0.11400
C819        C  0.73603364  0.09275483  0.44982235    -0.03000
C820        C  0.72636332  0.07725763  0.42993697    -0.05700
C821        C  0.74270655  0.06346811  0.41325506    -0.16500
C822        C  0.76978734  0.06629504  0.41572215     0.02400
C823        C  0.77495729  0.10743641  0.47490315     0.12400
C824        C  0.71788121  0.10764051  0.46723317     0.63000
H825        H  0.70579396  0.07553486  0.42750621     0.12400
C826        C  0.78894562  0.05225051  0.39858307     0.55100
H827        H  0.79972687  0.08414083  0.43825167     0.08200
C828        C  0.78507137  0.09345521  0.49599499    -0.05600
C829        C  0.80052804  0.10659388  0.51371574    -0.06400
C830        C  0.80591736  0.13301920  0.51094418    -0.15900
C831        C  0.79452813  0.14728944  0.49055460    -0.01500
C832        C  0.77932678  0.13400603  0.47267611    -0.09100
C833        C  0.78021035  0.06464902  0.49927304     0.65200
H834        H  0.80924373  0.09610267  0.52952793     0.10600
C835        C  0.79938676  0.17601270  0.48674312     0.63600
H836        H  0.77151959  0.14403852  0.45611469     0.08000
F837        F  0.78497944  0.02585227  0.40017137    -0.19500
F838        F  0.81408056  0.05699798  0.40573969    -0.15700
F839        F  0.78625057  0.06045385  0.37337761    -0.19200
F840        F  0.72207036  0.13385480  0.46422798    -0.22600
F841        F  0.72196425  0.10096135  0.49266791    -0.24000
F842        F  0.69243340  0.10265117  0.46150972    -0.18000
F843        F  0.82545631  0.18059453  0.48471436    -0.20500
F844        F  0.78947687  0.18964252  0.50734928    -0.21700
F845        F  0.78786106  0.18536417  0.46462636    -0.18900
F846        F  0.78970106  0.05546153  0.52240988    -0.18900
F847        F  0.79197267  0.05111106  0.47962284    -0.22800
F848        F  0.75415159  0.05971382  0.49878260    -0.24400
C849        C  0.68548503  0.90887906  0.30065466    -0.11200
C850        C  0.66066282  0.91179337  0.29090896     0.11400
C851        C  0.64587547  0.93384553  0.29716968    -0.03000
C852        C  0.65707814  0.95305302  0.31237898    -0.05700
C853        C  0.68218298  0.95056655  0.32152703    -0.16500
C854        C  0.69661925  0.92799126  0.31613863     0.02400
C855        C  0.64984156  0.89075399  0.27536009     0.12400
C856        C  0.61837638  0.93698330  0.28795988     0.63000
H857        H  0.64635424  0.97030477  0.31718906     0.12400
C858        C  0.72308254  0.92355547  0.32754301     0.55100
H859        H  0.69595021  0.89139678  0.29611838     0.08200
C860        C  0.65347689  0.88945619  0.24846396    -0.05600
C861        C  0.63907996  0.87135573  0.23450469    -0.06400
C862        C  0.62162329  0.85467336  0.24684727    -0.15900
C863        C  0.61921915  0.85517483  0.27413514    -0.01500
C864        C  0.63396587  0.87299475  0.28791784    -0.09100
C865        C  0.67229143  0.90726132  0.23477352     0.65200
H866        H  0.64092076  0.87047101  0.21376741     0.10600
C867        C  0.60001686  0.83846453  0.28874135     0.63600
H868        H  0.63218558  0.87429890  0.30864235     0.08000
F869        F  0.74036756  0.94112637  0.31739342    -0.19500
F870        F  0.73218276  0.89898968  0.32230827    -0.15700
F871        F  0.72202561  0.92635808  0.35399629    -0.19200
F872        F  0.60320254  0.91753976  0.29812701    -0.22600
F873        F  0.61751702  0.93582185  0.26140439    -0.24000
F874        F  0.60797674  0.96039241  0.29548733    -0.18000
F875        F  0.60670279  0.81271013  0.28661137    -0.20500
F876        F  0.57566419  0.84226830  0.27895021    -0.21700
F877        F  0.59919678  0.84441648  0.31469736    -0.18900
F878        F  0.67239409  0.90331828  0.20843405    -0.18900
F879        F  0.69679394  0.90272545  0.24384435    -0.22800
F880        F  0.66594665  0.93279597  0.23924926    -0.24400
C881        C  0.63639592  0.08378598  0.30324570    -0.11200
C882        C  0.65123246  0.09795429  0.28577630     0.11400
C883        C  0.67812558  0.09493872  0.28522454    -0.03000
C884        C  0.68932089  0.07698456  0.30216376    -0.05700
C885        C  0.67445470  0.06227585  0.31957080    -0.16500
C886        C  0.64727801  0.06556617  0.31993088     0.02400
C887        C  0.63737198  0.11638807  0.26916738     0.12400
C888        C  0.69482847  0.11079266  0.26710309     0.63000
H889        H  0.70994655  0.07454166  0.30206913     0.12400
C890        C  0.62936262  0.04986394  0.33714197     0.55100
H891        H  0.61586956  0.08711685  0.30345004     0.08200
C892        C  0.62248133  0.10779863  0.24818997    -0.05600
C893        C  0.60517121  0.12513435  0.23692950    -0.06400
C894        C  0.60196209  0.15047026  0.24621584    -0.15900
C895        C  0.61826736  0.15951503  0.26615595    -0.01500
C896        C  0.63558587  0.14205215  0.27743740    -0.09100
C897        C  0.62411494  0.08016645  0.23836215     0.65200
H898        H  0.59294952  0.11839675  0.22152353     0.10600
C899        C  0.61749648  0.18715442  0.27587108     0.63600
H900        H  0.64697435  0.14791623  0.29383656     0.08000
F901        F  0.63350698  0.02373801  0.33336779    -0.19500
F902        F  0.60377369  0.05467487  0.33186698    -0.15700
F903        F  0.63345041  0.05610875  0.36267051    -0.19200
F904        F  0.69272554  0.13670231  0.27310326    -0.22600
F905        F  0.68714050  0.10715259  0.24194772    -0.24000
F906        F  0.72043836  0.10393883  0.26883673    -0.18000
F907        F  0.59522771  0.19120721  0.28980970    -0.20500
F908        F  0.61854922  0.20417552  0.25532003    -0.21700
F909        F  0.63806921  0.19257205  0.29178209    -0.18900
F910        F  0.60946889  0.07658643  0.21647007    -0.18900
F911        F  0.61536713  0.06314426  0.25695544    -0.22800
F912        F  0.64922411  0.07414414  0.23228990    -0.24400
C913        C  0.32913068  0.09684410  0.61104803    -0.11200
C914        C  0.30260623  0.10039139  0.61318991     0.11400
C915        C  0.28914947  0.09019498  0.63454526    -0.03000
C916        C  0.30274324  0.07548592  0.65260912    -0.05700
C917        C  0.32920899  0.07054148  0.64993930    -0.16500
C918        C  0.34294759  0.08249435  0.62936939     0.02400
C919        C  0.28898120  0.11256633  0.59146629     0.12400
C920        C  0.26034090  0.09381762  0.63767909     0.63000
H921        H  0.29229832  0.06667999  0.66836629     0.12400
C922        C  0.37187913  0.08042743  0.62641264     0.55100
H923        H  0.33880684  0.10476339  0.59433287     0.08200
C924        C  0.28797552  0.13961908  0.58796094    -0.05600
C925        C  0.27328625  0.14943368  0.56756158    -0.06400
C926        C  0.25965490  0.13305329  0.55093115    -0.15900
C927        C  0.26175280  0.10582227  0.55383211    -0.01500
C928        C  0.27670810  0.09613089  0.57405835    -0.09100
C929        C  0.30190991  0.15796694  0.60591698     0.65200
H930        H  0.27166699  0.17013571  0.56497130     0.10600
C931        C  0.24863236  0.08689283  0.53579113     0.63600
H932        H  0.27841827  0.07546662  0.57698712     0.08000
F933        F  0.38367025  0.08650741  0.64944076    -0.19500
F934        F  0.38119412  0.09730851  0.60787017    -0.15700
F935        F  0.37852087  0.05565124  0.61908450    -0.19200
F936        F  0.24752724  0.07991322  0.61903250    -0.22600
F937        F  0.25402124  0.11964701  0.63530694    -0.24000
F938        F  0.25178832  0.08541005  0.66153561    -0.18000
F939        F  0.25405446  0.09332868  0.51048488    -0.20500
F940        F  0.22239532  0.08736264  0.53978025    -0.21700
F941        F  0.25686093  0.06177097  0.53982743    -0.18900
F942        F  0.29803197  0.18356566  0.59915555    -0.18900
F943        F  0.32798113  0.15322071  0.60505664    -0.22800
F944        F  0.29322535  0.15453810  0.63085448    -0.24400
C945        C  0.27290265  0.87980519  0.62327526    -0.11200
C946        C  0.28425550  0.90233987  0.61345692     0.11400
C947        C  0.28407450  0.90740434  0.58668731    -0.03000
C948        C  0.27044191  0.89058752  0.57067936    -0.05700
C949        C  0.25797860  0.86877543  0.58061786    -0.16500
C950        C  0.25975040  0.86264309  0.60708035     0.02400
C951        C  0.29606739  0.92061686  0.63158207     0.12400
C952        C  0.29826045  0.93037987  0.57514875     0.63000
H953        H  0.26925529  0.89438529  0.55024367     0.12400
C954        C  0.24725415  0.83853423  0.61809151     0.55100
H955        H  0.27398681  0.87612607  0.64376446     0.08200
C956        C  0.28189975  0.94108668  0.64257583    -0.05600
C957        C  0.29515835  0.95998425  0.65657809    -0.06400
C958        C  0.32175443  0.95832567  0.66048076    -0.15900
C959        C  0.33534914  0.93618937  0.65170564    -0.01500
C960        C  0.32216566  0.91784342  0.63694997    -0.09100
C961        C  0.25293937  0.94266528  0.63972686     0.65200
H962        H  0.28488187  0.97642214  0.66425359     0.10600
C963        C  0.36337194  0.93138132  0.65822326     0.63600
H964        H  0.33224756  0.90145358  0.62889396     0.08000
F965        F  0.25105248  0.83639690  0.64437519    -0.19500
F966        F  0.25756906  0.81687153  0.60649202    -0.15700
F967        F  0.22114790  0.83918657  0.61360884    -0.19200
F968        F  0.32413964  0.92839003  0.58054231    -0.22600
F969        F  0.28898801  0.95317439  0.58535833    -0.24000
F970        F  0.29551512  0.93156828  0.54867063    -0.18000
F971        F  0.37078498  0.90641416  0.65222699    -0.20500
F972        F  0.36730200  0.93483361  0.68430922    -0.21700
F973        F  0.37888238  0.94816208  0.64446630    -0.18900
F974        F  0.24292399  0.96418199  0.65191641    -0.18900
F975        F  0.24180856  0.92095056  0.65060001    -0.22800
F976        F  0.24628320  0.94394995  0.61402926    -0.24400
C977        C  0.32537173  0.90053856  0.41885428    -0.11200
C978        C  0.29959394  0.89844797  0.41180610     0.11400
C979        C  0.29070461  0.91070954  0.38919150    -0.03000
C980        C  0.30816273  0.92538507  0.37458101    -0.05700
C981        C  0.33388577  0.92846489  0.38215989    -0.16500
C982        C  0.34295449  0.91495858  0.40423683     0.02400
C983        C  0.28210423  0.88563933  0.43028138     0.12400
C984        C  0.26281504  0.90890984  0.38093412     0.63000
H985        H  0.30140109  0.93566481  0.35774551     0.12400
C986        C  0.37084082  0.91553661  0.41275252     0.55100
H987        H  0.33143706  0.89138535  0.43660486     0.08200
C988        C  0.28141070  0.85853236  0.43348407    -0.05600
C989        C  0.26628418  0.84817843  0.45343853    -0.06400
C990        C  0.25207693  0.86405973  0.47017558    -0.15900
C991        C  0.25259975  0.89135851  0.46656021    -0.01500
C992        C  0.26796709  0.90154568  0.44676121    -0.09100
C993        C  0.29681801  0.84072495  0.41611785     0.65200
H994        H  0.26565319  0.82743371  0.45626631     0.10600
C995        C  0.23778605  0.90997654  0.48366709     0.63600
H996        H  0.26947870  0.92227760  0.44411844     0.08000
F997        F  0.37586393  0.89691798  0.43126010    -0.19500
F998        F  0.37664761  0.93934820  0.42326118    -0.15700
F999        F  0.38675812  0.91071873  0.39195896    -0.19200
F1000       F  0.24724161  0.92091543  0.39883516    -0.22600
F1001       F  0.25563129  0.88329367  0.37887003    -0.24000
F1002       F  0.25874639  0.92067739  0.35732794    -0.18000
F1003       F  0.24334583  0.93554449  0.47800082    -0.20500
F1004       F  0.24399223  0.90578532  0.50918227    -0.21700
F1005       F  0.21171540  0.90652443  0.48019659    -0.18900
F1006       F  0.29184051  0.81494803  0.42129477    -0.18900
F1007       F  0.32276078  0.84489296  0.41961768    -0.22800
F1008       F  0.29073998  0.84541853  0.39065613    -0.24400
C1009       C  0.10449745  0.72593682  0.43914268    -0.11200
C1010       C  0.11271722  0.75058006  0.43186840     0.11400
C1011       C  0.10282073  0.76234653  0.40948791    -0.03000
C1012       C  0.08417668  0.74903594  0.39530847    -0.05700
C1013       C  0.07471550  0.72470024  0.40309849    -0.16500
C1014       C  0.08511019  0.71286556  0.42568490     0.02400
C1015       C  0.13094767  0.76404496  0.44889608     0.12400
C1016       C  0.11166937  0.78901012  0.40088940     0.63000
H1017       H  0.07640338  0.75805677  0.37821940     0.12400
C1018       C  0.07580918  0.68708225  0.43639961     0.55100
H1019       H  0.11286128  0.71749180  0.45626972     0.08200
C1020       C  0.12259224  0.77637049  0.47169348    -0.05600
C1021       C  0.14079174  0.78925103  0.48672606    -0.06400
C1022       C  0.16685752  0.78963420  0.47997511    -0.15900
C1023       C  0.17530368  0.77697108  0.45732534    -0.01500
C1024       C  0.15700546  0.76416382  0.44216087    -0.09100
C1025       C  0.09466230  0.77574342  0.48024376     0.65200
H1026       H  0.13484838  0.79883983  0.50426883     0.10600
C1027       C  0.20317217  0.77766875  0.44871517     0.63600
H1028       H  0.16282463  0.75417025  0.42480741     0.08000
F1029       F  0.05038785  0.68906144  0.44384844    -0.19500
F1030       F  0.08965227  0.67934902  0.45778851    -0.15700
F1031       F  0.07846443  0.66802951  0.41805036    -0.19200
F1032       F  0.13753225  0.78839695  0.39498827    -0.22600
F1033       F  0.10754903  0.80672741  0.42033408    -0.24000
F1034       F  0.09863235  0.79747449  0.37927876    -0.18000
F1035       F  0.21816341  0.76400034  0.46590684    -0.20500
F1036       F  0.21163504  0.80298962  0.44746536    -0.21700
F1037       F  0.20644027  0.76676308  0.42461807    -0.18900
F1038       F  0.09058010  0.79045345  0.50209569    -0.18900
F1039       F  0.08746308  0.75063428  0.48582215    -0.22800
F1040       F  0.07910231  0.78533301  0.46096235    -0.24400
C1041       C  0.09785061  0.57671002  0.26302505    -0.11200
C1042       C  0.10964476  0.59837522  0.27391038     0.11400
C1043       C  0.13667950  0.60074713  0.27364530    -0.03000
C1044       C  0.15116422  0.58101265  0.26223053    -0.05700
C1045       C  0.13944849  0.55913588  0.25156520    -0.16500
C1046       C  0.11231348  0.55682025  0.25179549     0.02400
C1047       C  0.09333932  0.61617014  0.28881298     0.12400
C1048       C  0.15017407  0.62361879  0.28597130     0.63000
H1049       H  0.17190456  0.58231875  0.26187574     0.12400
C1050       C  0.09867694  0.53302086  0.24152087     0.55100
H1051       H  0.07714359  0.57519379  0.26416040     0.08200
C1052       C  0.07870674  0.63597545  0.27725875    -0.05600
C1053       C  0.06309805  0.65131924  0.29314349    -0.06400
C1054       C  0.06179506  0.64735049  0.31995197    -0.15900
C1055       C  0.07692780  0.62758297  0.33137580    -0.01500
C1056       C  0.09199202  0.61199550  0.31535816    -0.09100
C1057       C  0.07932818  0.64061084  0.24837039     0.65200
H1058       H  0.05144656  0.66635403  0.28460083     0.10600
C1059       C  0.07834486  0.62344397  0.36027828     0.63600
H1060       H  0.10315683  0.59632384  0.32345515     0.08000
F1061       F  0.10145517  0.53178494  0.21508677    -0.19500
F1062       F  0.07266219  0.53341198  0.24701252    -0.15700
F1063       F  0.10890490  0.51099657  0.25260249    -0.19200
F1064       F  0.14602574  0.62340340  0.31225089    -0.22600
F1065       F  0.14090003  0.64648789  0.27587052    -0.24000
F1066       F  0.17640554  0.62298631  0.28174713    -0.18000
F1067       F  0.09735551  0.60601391  0.36697438    -0.20500
F1068       F  0.05527211  0.61388079  0.36942665    -0.21700
F1069       F  0.08395165  0.64662225  0.37212261    -0.18900
F1070       F  0.06487290  0.66193588  0.24138987    -0.18900
F1071       F  0.06957642  0.61930286  0.23575208    -0.22800
F1072       F  0.10424300  0.64480517  0.24020271    -0.24400
C1073       C  0.92350797  0.58964472  0.27062240    -0.11200
C1074       C  0.90887962  0.61164264  0.27615196     0.11400
C1075       C  0.88409782  0.61451326  0.26549864    -0.03000
C1076       C  0.87494173  0.59513471  0.24897502    -0.05700
C1077       C  0.88983583  0.57334352  0.24313805    -0.16500
C1078       C  0.91408254  0.56991182  0.25488015     0.02400
C1079       C  0.92068690  0.63126397  0.29298601     0.12400
C1080       C  0.86757082  0.63790679  0.27141519     0.63000
H1081       H  0.85631316  0.59711391  0.24000438     0.12400
C1082       C  0.92938384  0.54506321  0.25191953     0.55100
H1083       H  0.94246713  0.58802210  0.27895503     0.08200
C1084       C  0.92447034  0.62660146  0.31947999    -0.05600
C1085       C  0.94062605  0.64328069  0.33313103    -0.06400
C1086       C  0.95312812  0.66432999  0.32116062    -0.15900
C1087       C  0.94652411  0.67075541  0.29534261    -0.01500
C1088       C  0.93093288  0.65351387  0.28151519    -0.09100
C1089       C  0.91255392  0.60340867  0.33304529     0.65200
H1090       H  0.94464016  0.63896177  0.35309261     0.10600
C1091       C  0.95585627  0.69519004  0.28200812     0.63600
H1092       H  0.92761143  0.65660434  0.26118794     0.08000
F1093       F  0.95024729  0.54434650  0.26833839    -0.19500
F1094       F  0.93848665  0.54280115  0.22702319    -0.15700
F1095       F  0.91392451  0.52407482  0.25770343    -0.19200
F1096       F  0.87858607  0.65982407  0.26088979    -0.22600
F1097       F  0.86530950  0.64102856  0.29774266    -0.24000
F1098       F  0.84312734  0.63538475  0.26137640    -0.18000
F1099       F  0.94408283  0.69880436  0.25840984    -0.20500
F1100       F  0.98202265  0.69385515  0.27776989    -0.21700
F1101       F  0.95014249  0.71644780  0.29706967    -0.18900
F1102       F  0.91492974  0.60512018  0.35951978    -0.18900
F1103       F  0.92451778  0.58095345  0.32515932    -0.22800
F1104       F  0.88670151  0.60185351  0.32738827    -0.24400
C1105       C  0.89151500  0.42538203  0.26865110    -0.11200
C1106       C  0.91811741  0.42225587  0.26783369     0.11400
C1107       C  0.93325157  0.43865083  0.25216107    -0.03000
C1108       C  0.92099201  0.45822465  0.23800322    -0.05700
C1109       C  0.89421672  0.46194434  0.23906336    -0.16500
C1110       C  0.87913016  0.44522955  0.25496940     0.02400
C1111       C  0.92958172  0.40162748  0.28389504     0.12400
C1112       C  0.96221033  0.43544222  0.25041421     0.63000
H1113       H  0.93244016  0.47089065  0.22599415     0.12400
C1114       C  0.85019626  0.44789576  0.25788012     0.55100
H1115       H  0.88056652  0.41218705  0.28058933     0.08200
C1116       C  0.93376175  0.40495869  0.31050812    -0.05600
C1117       C  0.94596663  0.38509584  0.32424509    -0.06400
C1118       C  0.95443361  0.36223306  0.31222206    -0.15900
C1119       C  0.94902671  0.35855538  0.28553662    -0.01500
C1120       C  0.93628738  0.37835592  0.27205428    -0.09100
C1121       C  0.92576193  0.42960604  0.32422315     0.65200
H1122       H  0.94954882  0.38770851  0.34455410     0.10600
C1123       C  0.95712935  0.33454388  0.27075676     0.63600
H1124       H  0.93208920  0.37626319  0.25178547     0.08000
F1125       F  0.84440003  0.47144560  0.26900401    -0.19500
F1126       F  0.83984214  0.42882409  0.27352473    -0.15700
F1127       F  0.83854770  0.44598546  0.23407272    -0.19200
F1128       F  0.96806524  0.41165781  0.23989356    -0.22600
F1129       F  0.97293130  0.43705002  0.27466201    -0.24000
F1130       F  0.97342210  0.45429159  0.23511270    -0.18000
F1131       F  0.94616454  0.31282969  0.28183269    -0.20500
F1132       F  0.98358675  0.33236869  0.27085862    -0.21700
F1133       F  0.94939273  0.33538044  0.24529278    -0.18900
F1134       F  0.93291198  0.42946507  0.34986055    -0.18900
F1135       F  0.89940994  0.43231684  0.32323653    -0.22800
F1136       F  0.93712624  0.45076801  0.31254197    -0.24400
C1137       C  0.81584488  0.38560401  0.08453520    -0.11200
C1138       C  0.80561868  0.39787956  0.10627516     0.11400
C1139       C  0.78069405  0.39159527  0.11516565    -0.03000
C1140       C  0.76636504  0.37360797  0.10125469    -0.05700
C1141       C  0.77615862  0.36184187  0.07909002    -0.16500
C1142       C  0.80140716  0.36745871  0.07062097     0.02400
C1143       C  0.82004115  0.41930837  0.11790494     0.12400
C1144       C  0.76890948  0.40443708  0.13872165     0.53400
H1145       H  0.74685746  0.36934340  0.10699793     0.12400
C1146       C  0.81236469  0.35565228  0.04624123     0.55100
H1147       H  0.83482802  0.39114847  0.07801849     0.08200
C1148       C  0.83896388  0.41519610  0.13689727    -0.05600
C1149       C  0.84839867  0.43673732  0.15025250    -0.06400
C1150       C  0.83923802  0.46164906  0.14497800    -0.15900
C1151       C  0.82161179  0.46586770  0.12487337    -0.01500
C1152       C  0.81262025  0.44445453  0.11118304    -0.09100
C1153       C  0.84872619  0.38826859  0.14314493     0.65200
H1154       H  0.86233480  0.43425308  0.16548613     0.10600
C1155       C  0.81190525  0.49276977  0.11856387     0.63600
H1156       H  0.79848361  0.44697357  0.09614058     0.08000
F1157       F  0.83679016  0.36477408  0.04089469    -0.19500
F1158       F  0.79679949  0.36165920  0.02556555    -0.15700
F1159       F  0.81379540  0.32910945  0.04890867    -0.19200
F1160       F  0.76529477  0.43048612  0.13409997    -0.22600
F1161       F  0.78489321  0.40143290  0.15968904    -0.24000
F1162       F  0.74531708  0.39381560  0.14503772    -0.18000
F1163       F  0.79545818  0.49271392  0.09769249    -0.20500
F1164       F  0.83240400  0.50877949  0.11279739    -0.21700
F1165       F  0.79875725  0.50260210  0.13949962    -0.18900
F1166       F  0.86680879  0.38862607  0.16260537    -0.18900
F1167       F  0.86003621  0.37767148  0.12151398    -0.22800
F1168       F  0.82864465  0.37261679  0.15096644    -0.24400
C1169       C  0.60832772  0.26341537  0.14379538    -0.11200
C1170       C  0.63289812  0.26349891  0.15469763     0.11400
C1171       C  0.63660146  0.25420686  0.18002402    -0.03000
C1172       C  0.61578973  0.24236567  0.19265662    -0.05700
C1173       C  0.59184331  0.24000520  0.18063560    -0.16500
C1174       C  0.58755552  0.25162057  0.15639136     0.02400
C1175       C  0.65432720  0.27238363  0.13826997     0.12400
C1176       C  0.66234209  0.25662048  0.19341018     0.63000
H1177       H  0.61833741  0.23384833  0.21150368     0.12400
C1178       C  0.56120476  0.25155466  0.14399388     0.55100
H1179       H  0.60588674  0.27155241  0.12474620     0.08200
C1180       C  0.66536341  0.25598664  0.11949771    -0.05600
C1181       C  0.68277681  0.26664588  0.10174632    -0.06400
C1182       C  0.68857403  0.29312299  0.10171894    -0.15900
C1183       C  0.67904843  0.30902770  0.12181536    -0.01500
C1184       C  0.66177437  0.29830977  0.13971167    -0.09100
C1185       C  0.65791475  0.22763799  0.11751830     0.65200
H1186       H  0.69073148  0.25464417  0.08668351     0.10600
C1187       C  0.68751671  0.33690195  0.12488444     0.63600
H1188       H  0.65312665  0.31034761  0.15437303     0.08000
F1189       F  0.55443685  0.22669695  0.13712011    -0.19500
F1190       F  0.56059611  0.26679199  0.12205991    -0.15700
F1191       F  0.54325750  0.26111658  0.16117229    -0.19200
F1192       F  0.66871683  0.28243517  0.19576916    -0.22600
F1193       F  0.68120299  0.24425921  0.17933465    -0.24000
F1194       F  0.66182037  0.24583312  0.21782820    -0.18000
F1195       F  0.67689206  0.35213261  0.10581679    -0.20500
F1196       F  0.71396120  0.33824126  0.12347381    -0.21700
F1197       F  0.68006017  0.34691041  0.14843840    -0.18900
F1198       F  0.67198818  0.21494490  0.09878562    -0.18900
F1199       F  0.63225144  0.22546895  0.11127364    -0.22800
F1200       F  0.66218286  0.21528992  0.14072782    -0.24400
C1201       C  0.47169656  0.10569243  0.79534064    -0.11200
C1202       C  0.44881300  0.11704599  0.78694875     0.11400
C1203       C  0.44174519  0.14191029  0.79564512    -0.03000
C1204       C  0.45806160  0.15467065  0.81287382    -0.05700
C1205       C  0.48070154  0.14310612  0.82176951    -0.16500
C1206       C  0.48814424  0.11849815  0.81241350     0.02400
C1207       C  0.43165024  0.10135507  0.77077164     0.12400
C1208       C  0.41696381  0.15469429  0.78704613     0.63000
H1209       H  0.45300460  0.17365060  0.81998234     0.12400
C1210       C  0.51356433  0.10610018  0.81965747     0.55100
H1211       H  0.47638316  0.08648260  0.78857766     0.08200
C1212       C  0.43528674  0.09887110  0.74394981    -0.05600
C1213       C  0.41822911  0.08315825  0.73016399    -0.06400
C1214       C  0.39867611  0.06902643  0.74257960    -0.15900
C1215       C  0.39591184  0.07072452  0.76974798    -0.01500
C1216       C  0.41233913  0.08729316  0.78327237    -0.09100
C1217       C  0.45757940  0.11196272  0.73018360     0.65200
H1218       H  0.42050333  0.08123983  0.70953600     0.10600
C1219       C  0.37680592  0.05429408  0.78475744     0.63600
H1220       H  0.41063854  0.08909924  0.80397357     0.08000
F1221       F  0.53343080  0.12324339  0.81509740    -0.19500
F1222       F  0.51835735  0.08403595  0.80540979    -0.15700
F1223       F  0.51335336  0.09923628  0.84537919    -0.19200
F1224       F  0.39618036  0.14016477  0.79513279    -0.22600
F1225       F  0.41650638  0.15668816  0.76052638    -0.24000
F1226       F  0.41435411  0.17930043  0.79711186    -0.18000
F1227       F  0.38020853  0.02848097  0.77876073    -0.20500
F1228       F  0.35204630  0.06172968  0.77882187    -0.21700
F1229       F  0.37987328  0.05684807  0.81109166    -0.18900
F1230       F  0.45703104  0.10764480  0.70390405    -0.18900
F1231       F  0.48051085  0.10240111  0.73950004    -0.22800
F1232       F  0.45681731  0.13833074  0.73417572    -0.24400
C1233       C  0.58978224  0.25520851  0.94784790    -0.11200
C1234       C  0.61520867  0.24667007  0.94537210     0.11400
C1235       C  0.62125163  0.22580258  0.92891514    -0.03000
C1236       C  0.60130194  0.21416079  0.91511271    -0.05700
C1237       C  0.57599845  0.22301193  0.91723474    -0.16500
C1238       C  0.56991748  0.24382378  0.93364128     0.02400
C1239       C  0.63498785  0.25933097  0.96112548     0.12400
C1240       C  0.64856374  0.21590560  0.92598898     0.63000
H1241       H  0.60527634  0.19813455  0.90239009     0.12400
C1242       C  0.54258992  0.25354363  0.93631061     0.55100
H1243       H  0.58571367  0.27092075  0.96091169     0.08200
C1244       C  0.64634074  0.28303562  0.95370238    -0.05600
C1245       C  0.66512026  0.29376722  0.96971923    -0.06400
C1246       C  0.67235663  0.28168012  0.99276149    -0.15900
C1247       C  0.66050914  0.25829658  0.00048676    -0.01500
C1248       C  0.64188953  0.24744184  0.98434819    -0.09100
C1249       C  0.63828679  0.29713287  0.92933522     0.65200
H1250       H  0.67417322  0.31191372  0.96453426     0.10600
C1251       C  0.66653677  0.24563766  0.02614011     0.63600
H1252       H  0.63237358  0.22960628  0.98975313     0.08000
F1253       F  0.54056431  0.27281761  0.95462591    -0.19500
F1254       F  0.52665731  0.23341218  0.94357975    -0.15700
F1255       F  0.53435727  0.26346162  0.91302186    -0.19200
F1256       F  0.65727093  0.20648898  0.94928909    -0.22600
F1257       F  0.66451945  0.23568971  0.91791227    -0.24000
F1258       F  0.65019574  0.19616595  0.90812602    -0.18000
F1259       F  0.65129172  0.22417534  0.03070734    -0.20500
F1260       F  0.66225657  0.26312387  0.04574643    -0.21700
F1261       F  0.69186732  0.23777050  0.02658729    -0.18900
F1262       F  0.65277614  0.31919429  0.92516111    -0.18900
F1263       F  0.61285202  0.30441452  0.93128810    -0.22800
F1264       F  0.64124215  0.28124117  0.90820673    -0.24400
C1265       C  0.42311254  0.22889929  0.92169293    -0.11200
C1266       C  0.42798751  0.23083322  0.94813101     0.11400
C1267       C  0.45011615  0.21912639  0.95869599    -0.03000
C1268       C  0.46801046  0.20787106  0.94187461    -0.05700
C1269       C  0.46428469  0.20797936  0.91513585    -0.16500
C1270       C  0.44094381  0.21745188  0.90485709     0.02400
C1271       C  0.41058341  0.24681620  0.96406727     0.12400
C1272       C  0.45498236  0.21900339  0.98751956     0.63000
H1273       H  0.48558311  0.19972452  0.94943123     0.12400
C1274       C  0.43459131  0.21491186  0.87647701     0.55100
H1275       H  0.40561154  0.23731508  0.91424578     0.08200
C1276       C  0.41354403  0.27390841  0.96535587    -0.05600
C1277       C  0.39754557  0.28790025  0.98198959    -0.06400
C1278       C  0.37894185  0.27578076  0.99763059    -0.15900
C1279       C  0.37577912  0.24844917  0.99590572    -0.01500
C1280       C  0.39155875  0.23456929  0.97874197    -0.09100
C1281       C  0.43367665  0.28796652  0.94931220     0.65200
H1282       H  0.39970471  0.30868473  0.98297178     0.10600
C1283       C  0.35663764  0.23360629  0.01241160     0.63600
H1284       H  0.38965083  0.21379629  0.97700686     0.08000
F1285       F  0.40932225  0.22141910  0.87150519    -0.19500
F1286       F  0.43826511  0.18961874  0.86874218    -0.15700
F1287       F  0.45013278  0.23105177  0.86202593    -0.19200
F1288       F  0.43548930  0.20575442  0.99993487    -0.22600
F1289       F  0.45586872  0.24402986  0.99670825    -0.24000
F1290       F  0.47794905  0.20707079  0.99361189    -0.18000
F1291       F  0.35831677  0.20718363  0.00860462    -0.20500
F1292       F  0.33193240  0.24109450  0.00628317    -0.21700
F1293       F  0.36130204  0.23826517  0.03818793    -0.18900
F1294       F  0.43447999  0.31412120  0.95478436    -0.18900
F1295       F  0.42814606  0.28523015  0.92346478    -0.22800
F1296       F  0.45774223  0.27784920  0.95411299    -0.24400
C1297       C  0.91136325  0.80844456  0.45251693    -0.11200
C1298       C  0.91087146  0.78209395  0.44679362     0.11400
C1299       C  0.89434266  0.76524981  0.46048157    -0.03000
C1300       C  0.88008096  0.77522958  0.48109140    -0.05700
C1301       C  0.88193983  0.80131196  0.48824369    -0.16500
C1302       C  0.89672562  0.81861926  0.47281758     0.02400
C1303       C  0.93116834  0.77174996  0.43002675     0.12400
C1304       C  0.89235583  0.73670647  0.45377626     0.63000
H1305       H  0.86818515  0.76240426  0.49246580     0.12400
C1306       C  0.89735389  0.84761265  0.47745322     0.55100
H1307       H  0.92432224  0.82076060  0.44174809     0.08200
C1308       C  0.92877805  0.77015082  0.40302482    -0.05600
C1309       C  0.94709432  0.75565318  0.38942879    -0.06400
C1310       C  0.96752477  0.74353395  0.40222697    -0.15900
C1311       C  0.97144445  0.74784843  0.42881164    -0.01500
C1312       C  0.95301284  0.76204882  0.44231290    -0.09100
C1313       C  0.90727994  0.78381288  0.38882118     0.65200
H1314       H  0.94517719  0.75299586  0.36887175     0.10600
C1315       C  0.99489829  0.73770194  0.44290614     0.63600
H1316       H  0.95477041  0.76457146  0.46291397     0.08000
F1317       F  0.90874781  0.86073411  0.45714596    -0.19500
F1318       F  0.91127813  0.85295734  0.49941190    -0.15700
F1319       F  0.87262985  0.85698063  0.48010319    -0.19200
F1320       F  0.91571177  0.72463104  0.45736534    -0.22600
F1321       F  0.88511697  0.73398899  0.42836763    -0.24000
F1322       F  0.87436015  0.72408338  0.46890383    -0.18000
F1323       F  0.99682500  0.74797957  0.46740641    -0.20500
F1324       F  0.01692116  0.74432991  0.42949287    -0.21700
F1325       F  0.99347681  0.71113566  0.44526059    -0.18900
F1326       F  0.90852671  0.77952085  0.36255127    -0.18900
F1327       F  0.90908908  0.81013243  0.39292691    -0.22800
F1328       F  0.88370527  0.77524770  0.39757919    -0.24400
C1329       C  0.78537210  0.87732800  0.45926324    -0.11200
C1330       C  0.78306707  0.90375853  0.46412372     0.11400
C1331       C  0.79070594  0.91413745  0.48803051    -0.03000
C1332       C  0.80173438  0.89748915  0.50618223    -0.05700
C1333       C  0.80416717  0.87095454  0.50139583    -0.16500
C1334       C  0.79579373  0.86048767  0.47760251     0.02400
C1335       C  0.77054570  0.91977415  0.44449832     0.12400
C1336       C  0.78640853  0.94241172  0.49460441     0.63000
H1337       H  0.80809662  0.90496513  0.52452506     0.12400
C1338       C  0.79829993  0.83195229  0.47114147     0.55100
H1339       H  0.77865527  0.87003897  0.44097129     0.08200
C1340       C  0.78444712  0.93220924  0.42471975    -0.05600
C1341       C  0.77129053  0.94944589  0.40859401    -0.06400
C1342       C  0.74460174  0.95318970  0.41086072    -0.15900
C1343       C  0.73036289  0.93770025  0.42862238    -0.01500
C1344       C  0.74389023  0.92178587  0.44566181    -0.09100
C1345       C  0.81280522  0.92683358  0.42046782     0.65200
H1346       H  0.78190294  0.96025919  0.39428233     0.10600
C1347       C  0.70117855  0.93711483  0.42964170     0.63600
H1348       H  0.73381331  0.91090883  0.46034997     0.08000
F1349       F  0.79136929  0.82682998  0.44595866    -0.19500
F1350       F  0.78247188  0.81752329  0.48703952    -0.15700
F1351       F  0.82344171  0.82410269  0.47424730    -0.19200
F1352       F  0.76040888  0.94766064  0.49469272    -0.22600
F1353       F  0.79832603  0.95813747  0.47666324    -0.24000
F1354       F  0.79606060  0.94856452  0.51861774    -0.18000
F1355       F  0.69142553  0.93368203  0.40514299    -0.20500
F1356       F  0.69193995  0.95986584  0.44001716    -0.21700
F1357       F  0.69213649  0.91695253  0.44474897    -0.18900
F1358       F  0.82248626  0.94046929  0.39962983    -0.18900
F1359       F  0.81631738  0.90078856  0.41574152    -0.22800
F1360       F  0.82674043  0.93361849  0.44199029    -0.24400
C1361       C  0.93560089  0.70940249  0.64995338    -0.11200
C1362       C  0.94089721  0.73310625  0.63797182     0.11400
C1363       C  0.96523765  0.74492472  0.64076606    -0.03000
C1364       C  0.98365270  0.73246145  0.65591735    -0.05700
C1365       C  0.97845380  0.70868030  0.66767124    -0.16500
C1366       C  0.95425521  0.69673851  0.66475363     0.02400
C1367       C  0.92008887  0.74619959  0.62404180     0.12400
C1368       C  0.97170439  0.77054604  0.62785230     0.63000
H1369       H  0.00233355  0.74115214  0.65871365     0.12400
C1370       C  0.94801908  0.67131676  0.67799769     0.55100
H1371       H  0.91664659  0.70112478  0.64784912     0.08200
C1372       C  0.91429590  0.74046447  0.59811501    -0.05600
C1373       C  0.89665707  0.75634662  0.58522829    -0.06400
C1374       C  0.88514814  0.77739752  0.59767085    -0.15900
C1375       C  0.88969073  0.78199681  0.62402221    -0.01500
C1376       C  0.90697886  0.76591195  0.63698061    -0.09100
C1377       C  0.92686309  0.71795267  0.58422827     0.65200
H1378       H  0.89235353  0.75302394  0.56513627     0.10600
C1379       C  0.87641718  0.80383967  0.63822336     0.63600
H1380       H  0.91139452  0.76935008  0.65702756     0.08000
F1381       F  0.96421523  0.65216801  0.66907799    -0.19500
F1382       F  0.92302110  0.66356921  0.67343434    -0.15700
F1383       F  0.95113915  0.67395061  0.70428922    -0.19200
F1384       F  0.95627544  0.78991535  0.63759148    -0.22600
F1385       F  0.96789218  0.76873674  0.60160228    -0.24000
F1386       F  0.99700313  0.77760062  0.63186752    -0.18000
F1387       F  0.85013962  0.80179110  0.63515682    -0.20500
F1388       F  0.88460176  0.82735569  0.62853588    -0.21700
F1389       F  0.88167973  0.80330015  0.66431744    -0.18900
F1390       F  0.91915908  0.71645194  0.55879563    -0.18900
F1391       F  0.92022553  0.69505031  0.59629044    -0.22800
F1392       F  0.95325608  0.72058608  0.58456643    -0.24400
C1393       C  0.13832116  0.79247976  0.62124483    -0.11200
C1394       C  0.14258829  0.76606825  0.62483333     0.11400
C1395       C  0.16270362  0.75361424  0.61149470    -0.03000
C1396       C  0.17762680  0.76816468  0.59418670    -0.05700
C1397       C  0.17274680  0.79453234  0.58946100    -0.16500
C1398       C  0.15316008  0.80720778  0.60397089     0.02400
C1399       C  0.12380749  0.75143379  0.64048113     0.12400
C1400       C  0.16776702  0.72486822  0.61485209     0.63000
H1401       H  0.19256645  0.75857339  0.58334398     0.12400
C1402       C  0.14727706  0.83590141  0.60139379     0.55100
H1403       H  0.12247853  0.80126150  0.63150581     0.08200
C1404       C  0.12460687  0.75074772  0.66766783    -0.05600
C1405       C  0.10621624  0.73580117  0.68084340    -0.06400
C1406       C  0.08728623  0.72187002  0.66758379    -0.15900
C1407       C  0.08590325  0.72357854  0.64034032    -0.01500
C1408       C  0.10425457  0.73855221  0.62730683    -0.09100
C1409       C  0.14465844  0.76579531  0.68258035     0.65200
H1410       H  0.10667224  0.73460245  0.70164222     0.10600
C1411       C  0.06494706  0.71026975  0.62496767     0.63600
H1412       H  0.10377765  0.74008926  0.60652269     0.08000
F1413       F  0.16950787  0.85019970  0.60420768    -0.19500
F1414       F  0.13012150  0.84422471  0.62000997    -0.15700
F1415       F  0.13645526  0.84087941  0.57762157    -0.19200
F1416       F  0.14737945  0.71082215  0.60526509    -0.22600
F1417       F  0.17081360  0.71901025  0.64063154    -0.24000
F1418       F  0.18975215  0.71714034  0.60199751    -0.18000
F1419       F  0.04116272  0.71623798  0.63518548    -0.20500
F1420       F  0.06850096  0.68380925  0.62555702    -0.21700
F1421       F  0.06504619  0.71799086  0.59942538    -0.18900
F1422       F  0.14277706  0.76137233  0.70881279    -0.18900
F1423       F  0.14145321  0.79196255  0.67829759    -0.22800
F1424       F  0.16899559  0.75868024  0.67471663    -0.24400
C1425       C  0.12652171  0.61147128  0.76031305    -0.11200
C1426       C  0.12895133  0.62010717  0.78561286     0.11400
C1427       C  0.11727555  0.64335754  0.79336729    -0.03000
C1428       C  0.10022703  0.65539269  0.77624706    -0.05700
C1429       C  0.09569368  0.64543659  0.75139736    -0.16500
C1430       C  0.11051426  0.62401348  0.74266421     0.02400
C1431       C  0.14322335  0.60336713  0.80342353     0.12400
C1432       C  0.12327036  0.65550928  0.81925340     0.63000
H1433       H  0.08999145  0.67244315  0.78247730     0.12400
C1434       C  0.10981232  0.61398696  0.71517064     0.55100
H1435       H  0.13669512  0.59409390  0.75480948     0.08200
C1436       C  0.13085909  0.58276044  0.81636609    -0.05600
C1437       C  0.14601650  0.56492565  0.82973659    -0.06400
C1438       C  0.17295348  0.56639435  0.82951959    -0.15900
C1439       C  0.18527041  0.58731143  0.81671399    -0.01500
C1440       C  0.16996652  0.60564696  0.80398573    -0.09100
C1441       C  0.10195583  0.57869204  0.81475842     0.65200
H1442       H  0.13687508  0.54882212  0.83946006     0.10600
C1443       C  0.21424667  0.59038328  0.81618105     0.63600
H1444       H  0.17877700  0.62134060  0.79331062     0.08000
F1445       F  0.08658894  0.60196968  0.71049348    -0.19500
F1446       F  0.12903609  0.59611192  0.71055355    -0.15700
F1447       F  0.11339680  0.63422236  0.69805867    -0.19200
F1448       F  0.14929146  0.66047635  0.82072322    -0.22600
F1449       F  0.11646565  0.63906976  0.83912178    -0.24000
F1450       F  0.11033276  0.67861054  0.82267036    -0.18000
F1451       F  0.22506007  0.57097509  0.80148352    -0.20500
F1452       F  0.22383917  0.58925086  0.84095603    -0.21700
F1453       F  0.22160711  0.61381532  0.80553835    -0.18900
F1454       F  0.09389405  0.55804624  0.82974788    -0.18900
F1455       F  0.09506566  0.57374840  0.78958064    -0.22800
F1456       F  0.08907076  0.60041809  0.82313478    -0.24400
C1457       C  0.76142491  0.87426907  0.62947790    -0.11200
C1458       C  0.77517501  0.88785438  0.64819087     0.11400
C1459       C  0.80186943  0.88381449  0.65078044    -0.03000
C1460       C  0.81432279  0.86765371  0.63298927    -0.05700
C1461       C  0.80094869  0.85568540  0.61279670    -0.16500
C1462       C  0.77388254  0.85857634  0.61124485     0.02400
C1463       C  0.76153848  0.90821019  0.66289511     0.12400
C1464       C  0.81715651  0.89711523  0.67177929     0.63000
H1465       H  0.83490533  0.86497738  0.63414007     0.12400
C1466       C  0.75834891  0.84681818  0.58951756     0.55100
H1467       H  0.74090609  0.87740408  0.62834862     0.08200
C1468       C  0.75650232  0.93272046  0.65178265    -0.05600
C1469       C  0.74380679  0.95137742  0.66665098    -0.06400
C1470       C  0.73624389  0.94638495  0.69208952    -0.15900
C1471       C  0.74114474  0.92182457  0.70321369    -0.01500
C1472       C  0.75361621  0.90297246  0.68819711    -0.09100
C1473       C  0.76437891  0.93912418  0.62428280     0.65200
H1474       H  0.73965710  0.97021093  0.65847904     0.10600
C1475       C  0.73268014  0.91533554  0.73047268     0.63600
H1476       H  0.75743172  0.88396351  0.69610835     0.08000
F1477       F  0.73273803  0.85379394  0.59080011    -0.19500
F1478       F  0.75961227  0.82016468  0.59082653    -0.15700
F1479       F  0.76788121  0.85520080  0.56604724    -0.19200
F1480       F  0.80837301  0.88909397  0.69563003    -0.22600
F1481       F  0.81444476  0.92362565  0.66980852    -0.24000
F1482       F  0.84305310  0.89137606  0.67021408    -0.18000
F1483       F  0.70677243  0.92040767  0.73337246    -0.20500
F1484       F  0.74643338  0.93001690  0.74782683    -0.21700
F1485       F  0.73670729  0.88954936  0.73635445    -0.18900
F1486       F  0.75964199  0.96473810  0.61817999    -0.18900
F1487       F  0.75071684  0.92393356  0.60731075    -0.22800
F1488       F  0.79032159  0.93466738  0.62090689    -0.24400
C1489       C  0.65925739  0.10902535  0.77980998    -0.11200
C1490       C  0.63387609  0.10549030  0.78796891     0.11400
C1491       C  0.62108099  0.08179727  0.78331693    -0.03000
C1492       C  0.63470475  0.06185731  0.77120522    -0.05700
C1493       C  0.66041089  0.06498607  0.76400567    -0.16500
C1494       C  0.67291876  0.08896007  0.76785943     0.02400
C1495       C  0.62117628  0.12647701  0.80228248     0.12400
C1496       C  0.59327714  0.07762307  0.79132163     0.63000
H1497       H  0.62546021  0.04333581  0.76755614     0.12400
C1498       C  0.70030795  0.09342780  0.75887012     0.55100
H1499       H  0.66834132  0.12746191  0.78330324     0.08200
C1500       C  0.62300229  0.12803755  0.82932361    -0.05600
C1501       C  0.60575982  0.14410788  0.84239363    -0.06400
C1502       C  0.58738628  0.15884964  0.82914793    -0.15900
C1503       C  0.58823291  0.16007114  0.80183934    -0.01500
C1504       C  0.60518048  0.14347162  0.78880911    -0.09100
C1505       C  0.64254858  0.11220070  0.84419751     0.65200
H1506       H  0.60566680  0.14432440  0.86327957     0.10600
C1507       C  0.57078950  0.17777463  0.78644959     0.63600
H1508       H  0.60506552  0.14248429  0.76794185     0.08000
F1509       F  0.70813034  0.11866467  0.76289205    -0.19500
F1510       F  0.70219644  0.08836197  0.73281301    -0.15700
F1511       F  0.71677105  0.07731201  0.77216400    -0.19200
F1512       F  0.57770203  0.09519256  0.77879133    -0.22600
F1513       F  0.59062889  0.08086842  0.81759644    -0.24000
F1514       F  0.58476934  0.05303535  0.78528033    -0.18000
F1515       F  0.57514156  0.17571878  0.76023191    -0.20500
F1516       F  0.57527430  0.20316832  0.79336477    -0.21700
F1517       F  0.54536660  0.17162646  0.79108183    -0.18900
F1518       F  0.64110183  0.11674457  0.87040729    -0.18900
F1519       F  0.66699970  0.11864449  0.83601143    -0.22800
F1520       F  0.63855934  0.08611595  0.84016153    -0.24400
C1521       C  0.76301219  0.08114547  0.65849082    -0.11200
C1522       C  0.78172347  0.09259409  0.67385701     0.11400
C1523       C  0.78175659  0.08855162  0.70067759    -0.03000
C1524       C  0.76376761  0.07115062  0.71112422    -0.05700
C1525       C  0.74594250  0.05807767  0.69545453    -0.16500
C1526       C  0.74536845  0.06340607  0.66852316     0.02400
C1527       C  0.80176858  0.10725289  0.66018599     0.12400
C1528       C  0.80051871  0.10269483  0.71794298     0.63000
H1529       H  0.76359420  0.06757917  0.73167111     0.12400
C1530       C  0.72731642  0.04990059  0.64987636     0.55100
H1531       H  0.76327403  0.08542467  0.63805704     0.08200
C1532       C  0.82083754  0.09417269  0.64593196    -0.05600
C1533       C  0.83458501  0.10800096  0.62726419    -0.06400
C1534       C  0.82956630  0.13425059  0.62225762    -0.15900
C1535       C  0.81249562  0.14796242  0.63881927    -0.01500
C1536       C  0.79852823  0.13390721  0.65732370    -0.09100
C1537       C  0.82545867  0.06531444  0.64921567     0.65200
H1538       H  0.84817193  0.09777731  0.61531469     0.10600
C1539       C  0.80822485  0.17697893  0.63695841     0.63600
H1540       H  0.78372030  0.14328694  0.66851726     0.08000
F1541       F  0.72981063  0.02338944  0.65228400    -0.19500
F1542       F  0.73260108  0.05618322  0.62447673    -0.15700
F1543       F  0.70225225  0.05716134  0.65481954    -0.19200
F1544       F  0.79606837  0.12898841  0.71643531    -0.22600
F1545       F  0.82545093  0.09776846  0.71026770    -0.24000
F1546       F  0.79800291  0.09521095  0.74342709    -0.18000
F1547       F  0.79439007  0.18281285  0.61502507    -0.20500
F1548       F  0.83159301  0.18969092  0.63638326    -0.21700
F1549       F  0.79460162  0.18629042  0.65788892    -0.18900
F1550       F  0.84710902  0.05724207  0.63601473    -0.18900
F1551       F  0.80473364  0.05153181  0.63998413    -0.22800
F1552       F  0.82886725  0.05943107  0.67493915    -0.24400
C1553       C  0.62687728  0.92795324  0.79529663    -0.11200
C1554       C  0.61064783  0.91571947  0.77768910     0.11400
C1555       C  0.61251427  0.92148046  0.75119919    -0.03000
C1556       C  0.63141151  0.93898631  0.74303611    -0.05700
C1557       C  0.64785412  0.95148674  0.76053444    -0.16500
C1558       C  0.64555073  0.94591742  0.78728016     0.02400
C1559       C  0.59110932  0.89767864  0.78783750     0.12400
C1560       C  0.59424802  0.90964126  0.73173173     0.63000
H1561       H  0.63318612  0.94328459  0.72274577     0.12400
C1562       C  0.66198006  0.95911439  0.80749044     0.55100
H1563       H  0.62456755  0.92335915  0.81548723     0.08200
C1564       C  0.59703951  0.87169723  0.79388579    -0.05600
C1565       C  0.57759380  0.85595544  0.80422710    -0.06400
C1566       C  0.55297326  0.86570968  0.80913008    -0.15900
C1567       C  0.54689469  0.89153097  0.80248484    -0.01500
C1568       C  0.56631045  0.90722602  0.79206789    -0.09100
C1569       C  0.62391954  0.86095511  0.79015252     0.65200
H1570       H  0.58173758  0.83613848  0.80957456     0.10600
C1571       C  0.51996825  0.90225106  0.80581739     0.63600
H1572       H  0.56240194  0.92724934  0.78736367     0.08000
F1573       F  0.65467296  0.95233832  0.83225219    -0.19500
F1574       F  0.65967351  0.98566197  0.80524636    -0.15700
F1575       F  0.68736841  0.95199680  0.80436765    -0.19200
F1576       F  0.56947647  0.91772275  0.73678878    -0.22600
F1577       F  0.59518266  0.88299159  0.73315397    -0.24000
F1578       F  0.60030853  0.91684520  0.70675766    -0.18000
F1579       F  0.51405991  0.90424560  0.83168100    -0.20500
F1580       F  0.50246570  0.88603752  0.79408105    -0.21700
F1581       F  0.51752339  0.92654279  0.79484932    -0.18900
F1582       F  0.62504408  0.83479154  0.79566714    -0.18900
F1583       F  0.64079574  0.87358104  0.80628746    -0.22800
F1584       F  0.63181775  0.86443839  0.76496086    -0.24400
C1585       C  0.42566365  0.87306739  0.77261478    -0.11200
C1586       C  0.41387533  0.89222844  0.78744208     0.11400
C1587       C  0.41394330  0.89038039  0.81451718    -0.03000
C1588       C  0.42909788  0.87119379  0.82600100    -0.05700
C1589       C  0.44393069  0.85394846  0.81121052    -0.16500
C1590       C  0.44083265  0.85371873  0.78397683     0.02400
C1591       C  0.40382905  0.91527293  0.77404431     0.12400
C1592       C  0.39878081  0.90912495  0.83109321     0.63000
H1593       H  0.43044450  0.87039974  0.84676785     0.12400
C1594       C  0.45416989  0.83426389  0.76664936     0.55100
H1595       H  0.42424606  0.87452455  0.75187604     0.08200
C1596       C  0.42045434  0.93530150  0.76576736    -0.05600
C1597       C  0.41000689  0.95623201  0.75221773    -0.06400
C1598       C  0.38359787  0.95804006  0.74751146    -0.15900
C1599       C  0.36678460  0.93850480  0.75689931    -0.01500
C1600       C  0.37744500  0.91699503  0.76950315    -0.09100
C1601       C  0.44910405  0.93457553  0.77122108     0.65200
H1602       H  0.42243425  0.97141725  0.74511717     0.10600
C1603       C  0.33786598  0.93997027  0.75345968     0.63600
H1604       H  0.36530890  0.90135007  0.77606769     0.08000
F1605       F  0.48048248  0.83734235  0.76815109    -0.19500
F1606       F  0.44721319  0.83724000  0.74110691    -0.15700
F1607       F  0.44747186  0.80945627  0.77404822    -0.19200
F1608       F  0.37297890  0.90721728  0.82531856    -0.22600
F1609       F  0.40690932  0.93416517  0.82654158    -0.24000
F1610       F  0.40164934  0.90395692  0.85708068    -0.18000
F1611       F  0.33191651  0.94269741  0.72767841    -0.20500
F1612       F  0.32828555  0.96080231  0.76704782    -0.21700
F1613       F  0.32563390  0.91797953  0.76251631    -0.18900
F1614       F  0.46134583  0.95686395  0.76294154    -0.18900
F1615       F  0.46022778  0.91388346  0.75869212    -0.22800
F1616       F  0.45321551  0.93213633  0.79739222    -0.24400
C1617       C  0.45346190  0.72736855  0.91366007    -0.11200
C1618       C  0.43424242  0.73827681  0.92905804     0.11400
C1619       C  0.42688677  0.76431463  0.92528750    -0.03000
C1620       C  0.43920987  0.77871379  0.90594171    -0.05700
C1621       C  0.45905244  0.76816416  0.89098160    -0.16500
C1622       C  0.46630388  0.74195075  0.89468834     0.02400
C1623       C  0.42372858  0.72273369  0.95057533     0.12400
C1624       C  0.40705317  0.77720915  0.94248448     0.63000
H1625       H  0.43418619  0.79882399  0.90307101     0.12400
C1626       C  0.48839961  0.72977962  0.87991387     0.55100
H1627       H  0.45891147  0.70750410  0.91732516     0.08200
C1628       C  0.40254015  0.70594202  0.94745035    -0.05600
C1629       C  0.39202094  0.69404459  0.96946541    -0.06400
C1630       C  0.40281698  0.69777985  0.99386599    -0.15900
C1631       C  0.42512008  0.71299243  0.99664219    -0.01500
C1632       C  0.43521332  0.72542978  0.97479515    -0.09100
C1633       C  0.39142367  0.70049108  0.92102516     0.65200
H1634       H  0.37520865  0.68182694  0.96786304     0.10600
C1635       C  0.43787655  0.71615460  0.02264969     0.63600
H1636       H  0.45188869  0.73781888  0.97648034     0.08000
F1637       F  0.48253021  0.72872049  0.85400833    -0.19500
F1638       F  0.49340983  0.70483679  0.88818570    -0.15700
F1639       F  0.51047506  0.74419389  0.88333248    -0.19200
F1640       F  0.41620557  0.77846085  0.96739006    -0.22600
F1641       F  0.38442891  0.76328395  0.94238301    -0.24000
F1642       F  0.40158670  0.80212015  0.93441637    -0.18000
F1643       F  0.44551078  0.69223626  0.03176196    -0.20500
F1644       F  0.42078240  0.72699829  0.03991798    -0.21700
F1645       F  0.45930228  0.73192506  0.02122408    -0.18900
F1646       F  0.37070401  0.68377721  0.92235961    -0.18900
F1647       F  0.40999011  0.68926907  0.90563507    -0.22800
F1648       F  0.38328987  0.72317686  0.90958651    -0.24400
C1649       C  0.62153953  0.71375878  0.92486054    -0.11200
C1650       C  0.62497145  0.74042096  0.92192777     0.11400
C1651       C  0.64688114  0.75254375  0.93230267    -0.03000
C1652       C  0.66485300  0.73727527  0.94547836    -0.05700
C1653       C  0.66159069  0.71040896  0.94863298    -0.16500
C1654       C  0.63966323  0.69828707  0.93766592     0.02400
C1655       C  0.60468362  0.75523000  0.90858234     0.12400
C1656       C  0.65112297  0.78150563  0.92964641     0.63000
H1657       H  0.68139683  0.74648063  0.95397096     0.12400
C1658       C  0.63527808  0.66926603  0.93880801     0.55100
H1659       H  0.60431661  0.70519206  0.91703921     0.08200
C1660       C  0.60293987  0.75603206  0.88145762    -0.05600
C1661       C  0.58300601  0.77036441  0.87023280    -0.06400
C1662       C  0.56457236  0.78325967  0.88525907    -0.15900
C1663       C  0.56604685  0.78184110  0.91257463    -0.01500
C1664       C  0.58626408  0.76778786  0.92368888    -0.09100
C1665       C  0.62169109  0.74132203  0.86451382     0.65200
H1666       H  0.58146695  0.77130490  0.84947324     0.10600
C1667       C  0.54610887  0.79419655  0.93009410     0.63600
H1668       H  0.58786672  0.76629317  0.94441790     0.08000
F1669       F  0.61502460  0.66168789  0.92336474    -0.19500
F1670       F  0.62960736  0.66180487  0.96376239    -0.15700
F1671       F  0.65697636  0.65645829  0.93028084    -0.19200
F1672       F  0.63177646  0.79472209  0.94220713    -0.22600
F1673       F  0.65114149  0.78847293  0.90394508    -0.24000
F1674       F  0.67429526  0.78916239  0.94012359    -0.18000
F1675       F  0.54977498  0.78759281  0.95566171    -0.20500
F1676       F  0.52178399  0.78606342  0.92322723    -0.21700
F1677       F  0.54762459  0.82081644  0.92822050    -0.18900
F1678       F  0.61740909  0.74589363  0.83861633    -0.18900
F1679       F  0.61909838  0.71508754  0.86885409    -0.22800
F1680       F  0.64657589  0.74864182  0.87001349    -0.24400
C1681       C  0.83040614  0.60953797  0.11488230    -0.11200
C1682       C  0.80483304  0.60453774  0.10827587     0.11400
C1683       C  0.79122407  0.58444625  0.12084725    -0.03000
C1684       C  0.80422223  0.56913047  0.13893348    -0.05700
C1685       C  0.83020994  0.57324098  0.14478138    -0.16500
C1686       C  0.84330887  0.59447582  0.13339149     0.02400
C1687       C  0.79310560  0.61931998  0.08686761     0.12400
C1688       C  0.76312652  0.57906969  0.11502882     0.63000
H1689       H  0.79427137  0.55325418  0.14815533     0.12400
C1690       C  0.87042655  0.60174618  0.14113140     0.55100
H1691       H  0.84034916  0.62505056  0.10501158     0.08200
C1692       C  0.78198938  0.64401001  0.09040226    -0.05600
C1693       C  0.76816737  0.65503497  0.06990398    -0.06400
C1694       C  0.76533058  0.64203894  0.04642516    -0.15900
C1695       C  0.77777772  0.61813771  0.04240838    -0.01500
C1696       C  0.79185914  0.60730069  0.06274286    -0.09100
C1697       C  0.78457119  0.65844415  0.11567094     0.65200
H1698       H  0.75875550  0.67353761  0.07229430     0.10600
C1699       C  0.77614920  0.60425186  0.01677966     0.63600
H1700       H  0.80111367  0.58871534  0.06038261     0.08000
F1701       F  0.87737202  0.62575561  0.13155276    -0.19500
F1702       F  0.88761143  0.58376171  0.13169449    -0.15700
F1703       F  0.87221153  0.60271846  0.16768788    -0.19200
F1704       F  0.76036577  0.57144636  0.08972401    -0.22600
F1705       F  0.74873996  0.60111395  0.11912786    -0.24000
F1706       F  0.75323398  0.55966499  0.13054874    -0.18000
F1707       F  0.79077354  0.58193259  0.01653598    -0.20500
F1708       F  0.78503167  0.62030992  0.99741991    -0.21700
F1709       F  0.75100434  0.59751216  0.01172505    -0.18900
F1710       F  0.77117624  0.68153992  0.11539659    -0.18900
F1711       F  0.81012392  0.66394955  0.12012159    -0.22800
F1712       F  0.77519699  0.64358321  0.13575231    -0.24400
C1713       C  0.64865914  0.73628254  0.07568863    -0.11200
C1714       C  0.66399746  0.74122516  0.09719268     0.11400
C1715       C  0.68983425  0.73296441  0.09780322    -0.03000
C1716       C  0.69978248  0.72033621  0.07609671    -0.05700
C1717       C  0.68437714  0.71549199  0.05458978    -0.16500
C1718       C  0.65856734  0.72377039  0.05401837     0.02400
C1719       C  0.65182287  0.75457307  0.11896044     0.12400
C1720       C  0.70648654  0.73698022  0.12138783     0.63000
H1721       H  0.71941560  0.71352953  0.07596877     0.12400
C1722       C  0.64189848  0.72015414  0.03035587     0.55100
H1723       H  0.62882899  0.74248381  0.07604765     0.08200
C1724       C  0.64768329  0.78149631  0.11858155    -0.05600
C1725       C  0.63360110  0.79250104  0.13874573    -0.06400
C1726       C  0.62238898  0.77730709  0.15833323    -0.15900
C1727       C  0.62672093  0.75012500  0.15855811    -0.01500
C1728       C  0.64173523  0.73937845  0.13883647    -0.09100
C1729       C  0.65717257  0.79831842  0.09643201     0.65200
H1730       H  0.63030816  0.81316422  0.13864799     0.10600
C1731       C  0.61477010  0.73212595  0.17844701     0.63600
H1732       H  0.64488882  0.71869172  0.13804757     0.08000
F1733       F  0.61822125  0.73195281  0.03311221    -0.19500
F1734       F  0.63777606  0.69414828  0.02600946    -0.15700
F1735       F  0.65396158  0.73093613  0.00914379    -0.19200
F1736       F  0.69643641  0.72328439  0.14195969    -0.22600
F1737       F  0.70734862  0.76290638  0.12763687    -0.24000
F1738       F  0.73139035  0.72859524  0.11734021    -0.18000
F1739       F  0.58831988  0.73428069  0.17777619    -0.20500
F1740       F  0.62366630  0.73828526  0.20271740    -0.21700
F1741       F  0.62085626  0.70649008  0.17392392    -0.18900
F1742       F  0.65238364  0.82426548  0.10069090    -0.18900
F1743       F  0.64489735  0.79140513  0.07392960    -0.22800
F1744       F  0.68331861  0.79524703  0.09320578    -0.24400
C1745       C  0.90925532  0.58202711  0.78904099    -0.11200
C1746       C  0.93489333  0.57601862  0.78334468     0.11400
C1747       C  0.94483044  0.55132200  0.78955089    -0.03000
C1748       C  0.92831438  0.53306121  0.80074808    -0.05700
C1749       C  0.90254299  0.53881464  0.80578046    -0.16500
C1750       C  0.89270789  0.56363539  0.80016988     0.02400
C1751       C  0.95104439  0.59602925  0.77099933     0.12400
C1752       C  0.97268952  0.54427347  0.78439986     0.63000
H1753       H  0.93536128  0.51398070  0.80563835     0.12400
C1754       C  0.86520916  0.57077184  0.80665775     0.55100
H1755       H  0.90234056  0.60125202  0.78459057     0.08200
C1756       C  0.95033253  0.60050047  0.74416527    -0.05600
C1757       C  0.96756155  0.61843711  0.73353301    -0.06400
C1758       C  0.98523241  0.63191358  0.74882882    -0.15900
C1759       C  0.98554989  0.62779142  0.77581764    -0.01500
C1760       C  0.96796634  0.61011229  0.78650232    -0.09100
C1761       C  0.93174030  0.58614102  0.72682476     0.65200
H1762       H  0.96758619  0.62188262  0.71298027     0.10600
C1763       C  0.00512226  0.64079367  0.79308449     0.63600
H1764       H  0.96775243  0.60649617  0.80703994     0.08000
F1765       F  0.86000781  0.59639162  0.80098284    -0.19500
F1766       F  0.86080355  0.56692418  0.83265770    -0.15700
F1767       F  0.84850833  0.55555905  0.79268652    -0.19200
F1768       F  0.98866729  0.55994693  0.79869334    -0.22600
F1769       F  0.97830863  0.54742064  0.75856427    -0.24000
F1770       F  0.97789556  0.51887183  0.79100195    -0.18000
F1771       F  0.00374204  0.63170098  0.81814524    -0.20500
F1772       F  0.00080953  0.66713524  0.79357807    -0.21700
F1773       F  0.02963526  0.63602640  0.78396539    -0.18900
F1774       F  0.93488632  0.59290966  0.70120222    -0.18900
F1775       F  0.90679063  0.59188716  0.73381383    -0.22800
F1776       F  0.93555510  0.55979542  0.72900831    -0.24400
C1777       C  0.78196596  0.61521101  0.91118630    -0.11200
C1778       C  0.76790139  0.59325438  0.90426827     0.11400
C1779       C  0.74224529  0.59043529  0.91261351    -0.03000
C1780       C  0.73188966  0.60935557  0.92876911    -0.05700
C1781       C  0.74624096  0.63087019  0.93695982    -0.16500
C1782       C  0.77165315  0.63432673  0.92736320     0.02400
C1783       C  0.78219943  0.57196224  0.89212540     0.12400
C1784       C  0.72525318  0.56751851  0.90607012     0.63000
H1785       H  0.71239667  0.60676633  0.93562293     0.12400
C1786       C  0.78842048  0.65725244  0.93462207     0.55100
H1787       H  0.80166078  0.61658411  0.90463916     0.08200
C1788       C  0.78698913  0.57108009  0.86540450    -0.05600
C1789       C  0.80209465  0.55082762  0.85572613    -0.06400
C1790       C  0.81265541  0.53194929  0.87208148    -0.15900
C1791       C  0.80704407  0.53249647  0.89883721    -0.01500
C1792       C  0.79183017  0.55268090  0.90836182    -0.09100
C1793       C  0.77609505  0.59142863  0.84742283     0.65200
H1794       H  0.80641929  0.55003394  0.83533336     0.10600
C1795       C  0.81669409  0.51190877  0.91734404     0.63600
H1796       H  0.78768945  0.55394319  0.92877728     0.08000
F1797       F  0.77705031  0.67993660  0.92637286    -0.19500
F1798       F  0.81250701  0.65593664  0.92339030    -0.15700
F1799       F  0.79183888  0.65799245  0.96098820    -0.19200
F1800       F  0.72031080  0.55354013  0.92826795    -0.22600
F1801       F  0.73598423  0.55110170  0.88809139    -0.24000
F1802       F  0.70224508  0.57638740  0.89621366    -0.18000
F1803       F  0.84282777  0.51468832  0.92087352    -0.20500
F1804       F  0.81152761  0.48757502  0.90767505    -0.21700
F1805       F  0.80497988  0.51373812  0.94123218    -0.18900
F1806       F  0.78224391  0.58649960  0.82196657    -0.18900
F1807       F  0.78578291  0.61545926  0.85372303    -0.22800
F1808       F  0.74965155  0.59192836  0.84965953    -0.24400
C1809       C  0.78483333  0.39797942  0.88902504    -0.11200
C1810       C  0.79892084  0.38561730  0.90836917     0.11400
C1811       C  0.82593740  0.38729458  0.90845574    -0.03000
C1812       C  0.83782489  0.40436665  0.89112268    -0.05700
C1813       C  0.82354146  0.41920288  0.87352650    -0.16500
C1814       C  0.79672384  0.41473363  0.87123393     0.02400
C1815       C  0.78475918  0.37356286  0.92996511     0.12400
C1816       C  0.84196550  0.37156720  0.92718557     0.63000
H1817       H  0.85840841  0.40698358  0.89187209     0.12400
C1818       C  0.78043265  0.42820872  0.85108306     0.55100
H1819       H  0.76421258  0.39550870  0.88898646     0.08200
C1820       C  0.77712377  0.38839923  0.95149943    -0.05600
C1821       C  0.76477436  0.37585698  0.97201460    -0.06400
C1822       C  0.75956454  0.34926185  0.97147910    -0.15900
C1823       C  0.76624012  0.33461103  0.94941211    -0.01500
C1824       C  0.77894312  0.34714948  0.92892126    -0.09100
C1825       C  0.78178257  0.41741209  0.95267587     0.65200
H1826       H  0.75920123  0.38679399  0.98888802     0.10600
C1827       C  0.75928177  0.30622598  0.94709260     0.63600
H1828       H  0.78463066  0.33643014  0.91195030     0.08000
F1829       F  0.75490324  0.42092986  0.85267131    -0.19500
F1830       F  0.78917508  0.42179300  0.82676295    -0.15700
F1831       F  0.78169341  0.45469221  0.85436007    -0.19200
F1832       F  0.83713726  0.34555649  0.92358926    -0.22600
F1833       F  0.83590092  0.37806284  0.95226329    -0.24000
F1834       F  0.86798507  0.37567937  0.92359527    -0.18000
F1835       F  0.73340002  0.30284956  0.95210076    -0.20500
F1836       F  0.77345058  0.29183120  0.96440209    -0.21700
F1837       F  0.76423694  0.29683891  0.92264900    -0.18900
F1838       F  0.77324102  0.42791957  0.97562969    -0.18900
F1839       F  0.76884557  0.42951987  0.93284052    -0.22800
F1840       F  0.80768503  0.42270697  0.95042380    -0.24400
C1841       C  0.94763878  0.39830245  0.80472327    -0.11200
C1842       C  0.95061633  0.40102541  0.77807902     0.11400
C1843       C  0.93429952  0.41776311  0.76415556    -0.03000
C1844       C  0.91601131  0.43224054  0.77781170    -0.05700
C1845       C  0.91362690  0.43041334  0.80472781    -0.16500
C1846       C  0.92948492  0.41284836  0.81849878     0.02400
C1847       C  0.97104150  0.38582923  0.76537771     0.12400
C1848       C  0.93624168  0.42032776  0.73506387     0.63000
H1849       H  0.90371228  0.44553204  0.76753518     0.12400
C1850       C  0.92731354  0.40905196  0.84745506     0.55100
H1851       H  0.96013074  0.38494947  0.81470377     0.08200
C1852       C  0.99693046  0.39416824  0.76517745    -0.05600
C1853       C  0.01531977  0.37866727  0.75279660    -0.06400
C1854       C  0.00853939  0.35511884  0.74141617    -0.15900
C1855       C  0.98276038  0.34665631  0.74188265    -0.01500
C1856       C  0.96432282  0.36220496  0.75409978    -0.09100
C1857       C  0.00508074  0.41907014  0.77830027     0.65200
H1858       H  0.03523263  0.38464015  0.75212113     0.10600
C1859       C  0.97482620  0.32166100  0.72894327     0.63600
H1860       H  0.94444871  0.35614136  0.75487481     0.08000
F1861       F  0.93620201  0.43080047  0.86000871    -0.19500
F1862       F  0.94168278  0.38820675  0.85588616    -0.15700
F1863       F  0.90201620  0.40451628  0.85425469    -0.19200
F1864       F  0.93086557  0.39683586  0.72369864    -0.22600
F1865       F  0.96070596  0.42796730  0.72806778    -0.24000
F1866       F  0.91913016  0.43838342  0.72548574    -0.18000
F1867       F  0.98731851  0.30106677  0.74035232    -0.20500
F1868       F  0.98124137  0.32263470  0.70310202    -0.21700
F1869       F  0.94866966  0.31738252  0.73088969    -0.18900
F1870       F  0.03087293  0.42427937  0.77447022    -0.18900
F1871       F  0.00079887  0.41710243  0.80450122    -0.22800
F1872       F  0.99119236  0.43969532  0.76873592    -0.24400
loop_ 
_geom_bond_atom_site_label_1 
_geom_bond_atom_site_label_2 
_geom_bond_distance 
_geom_bond_site_symmetry_2 
_ccdc_geom_bond_type 
O1           Cu9   2.008       .  S
O1           C11   1.279       .  A
O2           Cu9   2.006       .  S
O2           C12   1.278       .  A
O3           Cu9   2.009       .  S
O3           C13   1.277       .  A
O4           Cu9   2.015       .  S
O4           C14   1.277       .  A
O5          Cu10   1.992       .  S
O5           C14   1.277       .  A
O6          Cu10   1.990       .  S
O6           C13   1.275       .  A
O7          Cu10   1.995       .  S
O7           C12   1.275       .  A
O8          Cu10   1.992       .  S
O8           C11   1.274       .  A
Cu9         Cu10   2.371       .  S
C11        C1845   1.482       .  S
C12        C1790   1.477       .  S
C13        C1749   1.466       .  S
C14        C1813   1.484       .  S
O15         Cu23   2.004       .  S
O15          C25   1.276       .  A
O16         Cu23   2.003   1_554  S
O16          C26   1.277       .  A
O17         Cu23   1.982   1_554  S
O17          C27   1.274       .  A
O18         Cu23   1.987       .  S
O18          C28   1.277       .  A
O19         Cu24   2.002       .  S
O19          C28   1.275       .  A
O20         Cu24   1.996   1_554  S
O20          C27   1.276       .  A
O21         Cu24   2.010   1_554  S
O21          C26   1.277       .  A
O22         Cu24   2.007       .  S
O22          C25   1.279       .  A
Cu23        Cu24   2.371       .  S
C25        C1653   1.491       .  S
C26        C1694   1.470       .  S
C27        C1717   1.458       .  S
C28        C1781   1.486       .  S
O29         Cu37   1.991       .  S
O29          C39   1.277       .  A
O30         Cu37   1.996       .  S
O30          C40   1.275       .  A
O31         Cu37   1.994       .  S
O31          C41   1.275       .  A
O32         Cu37   1.995       .  S
O32          C42   1.277       .  A
O33         Cu38   2.009       .  S
O33          C42   1.277       .  A
O34         Cu38   2.010       .  S
O34          C41   1.277       .  A
O35         Cu38   2.004       .  S
O35          C40   1.278       .  A
O36         Cu38   2.011       .  S
O36          C39   1.276       .  A
Cu37        Cu38   2.370       .  S
C39        C1589   1.488       .  S
C40        C1662   1.482       .  S
C41        C1566   1.469       .  S
C42        C1621   1.479       .  S
O43         Cu51   2.006   1_565  S
O43          C53   1.278       .  A
O44         Cu51   1.997       .  S
O44          C54   1.276       .  A
O45         Cu51   1.977       .  S
O45          C55   1.272       .  A
O46         Cu51   1.983   1_565  S
O46          C56   1.276       .  A
O47         Cu52   2.011   1_565  S
O47          C56   1.277       .  A
O48         Cu52   2.010       .  S
O48          C55   1.279       .  A
O49         Cu52   2.005       .  S
O49          C54   1.276       .  A
O50         Cu52   2.006   1_565  S
O50          C53   1.276       .  A
Cu51        Cu52   2.369       .  S
C53        C1470   1.477       .  S
C54        C1493   1.467       .  S
C55        C1525   1.483       .  S
C56        C1557   1.486       .  S
O57         Cu65   1.990       .  S
O57          C67   1.274       .  A
O58         Cu65   1.987       .  S
O58          C68   1.275       .  A
O59         Cu65   1.988       .  S
O59          C69   1.274   1_455  A
O60         Cu65   1.988       .  S
O60          C70   1.274       .  A
O61         Cu66   1.998       .  S
O61          C70   1.277       .  A
O62         Cu66   1.997       .  S
O62          C69   1.276   1_455  A
O63         Cu66   2.017       .  S
O63          C68   1.278       .  A
O64         Cu66   2.011       .  S
O64          C67   1.278       .  A
Cu65        Cu66   2.372       .  S
C67        C1406   1.476       .  S
C68        C1758   1.477   1_455  S
C69        C1365   1.460       .  S
C70        C1429   1.487       .  S
O71         Cu79   1.984       .  S
O71          C81   1.273       .  A
O72         Cu79   1.993       .  S
O72          C82   1.274       .  A
O73         Cu79   2.018       .  S
O73          C83   1.279       .  A
O74         Cu79   2.007       .  S
O74          C84   1.279       .  A
O75         Cu80   1.987       .  S
O75          C84   1.273       .  A
O76         Cu80   1.994       .  S
O76          C83   1.276       .  A
O77         Cu80   1.993       .  S
O77          C82   1.276       .  A
O78         Cu80   1.992       .  S
O78          C81   1.277       .  A
Cu79        Cu80   2.373       .  S
C81        C1333   1.467       .  S
C82        C1374   1.461       .  S
C83        C1461   1.484       .  S
C84        C1301   1.480       .  S
O85         Cu93   1.996       .  S
O85          C95   1.275       .  A
O86         Cu93   1.996       .  S
O86          C96   1.276       .  A
O87         Cu93   2.008       .  S
O87          C97   1.277       .  A
O88         Cu93   2.010       .  S
O88          C98   1.277       .  A
O89         Cu94   1.986       .  S
O89          C98   1.277       .  A
O90         Cu94   2.002       .  S
O90          C97   1.277       .  A
O91         Cu94   2.000       .  S
O91          C96   1.276       .  A
O92         Cu94   1.994       .  S
O92          C95   1.276       .  A
Cu93        Cu94   2.375       .  S
C95        C1237   1.461       .  S
C96        C1205   1.470       .  S
C97        C1269   1.476       .  S
C98        C1502   1.478       .  S
O99        Cu107   1.994       .  S
O99         C109   1.277   1_554  A
O100       Cu107   1.997       .  S
O100        C110   1.275       .  A
O101       Cu107   1.982       .  S
O101        C111   1.275       .  A
O102       Cu107   1.988       .  S
O102        C112   1.275       .  A
O103       Cu108   2.005       .  S
O103        C112   1.277       .  A
O104       Cu108   2.007       .  S
O104        C111   1.276       .  A
O105       Cu108   2.015       .  S
O105        C110   1.279       .  A
O106       Cu108   2.011       .  S
O106        C109   1.277   1_554  A
Cu107      Cu108   2.375       .  S
C109       C1822   1.477       .  S
C110       C1182   1.479       .  S
C111       C1141   1.466       .  S
C112       C1246   1.467   1_554  S
O113       Cu121   2.000       .  S
O113        C123   1.277       .  A
O114       Cu121   2.002       .  S
O114        C124   1.276       .  A
O115       Cu121   2.001       .  S
O115        C125   1.277       .  A
O116       Cu121   1.998       .  S
O116        C126   1.274       .  A
O117       Cu122   2.011       .  S
O117        C126   1.280       .  A
O118       Cu122   2.016       .  S
O118        C125   1.278       .  A
O119       Cu122   1.989       .  S
O119        C124   1.275       .  A
O120       Cu122   1.991       .  S
O120        C123   1.274       .  A
Cu121      Cu122   2.372       .  S
C123       C1150   1.459       .  S
C124       C1077   1.468       .  S
C125       C1685   1.485       .  S
C126       C1109   1.494       .  S
O127       Cu135   1.991   1_655  S
O127        C137   1.275       .  A
O128       Cu135   1.998       .  S
O128        C138   1.275       .  A
O129       Cu135   1.988       .  S
O129        C139   1.272       .  A
O130       Cu135   1.987   1_655  S
O130        C140   1.276       .  A
O131       Cu136   2.015   1_655  S
O131        C140   1.277       .  A
O132       Cu136   2.013       .  S
O132        C139   1.281       .  A
O133       Cu136   1.998       .  S
O133        C138   1.277       .  A
O134       Cu136   1.993   1_655  S
O134        C137   1.275       .  A
Cu135      Cu136   2.365       .  S
C137       C1310   1.465       .  S
C138       C1054   1.482       .  S
C139       C1013   1.493       .  S
C140       C1086   1.493       .  S
O141       Cu149   2.002       .  S
O141        C151   1.275       .  A
O142       Cu149   2.004       .  S
O142        C152   1.276       .  A
O143       Cu149   2.013       .  S
O143        C153   1.280       .  A
O144       Cu149   2.013       .  S
O144        C154   1.280       .  A
O145       Cu150   1.991       .  S
O145        C154   1.273       .  A
O146       Cu150   1.990       .  S
O146        C153   1.273       .  A
O147       Cu150   1.990       .  S
O147        C152   1.276       .  A
O148       Cu150   1.994       .  S
O148        C151   1.276       .  A
Cu149      Cu150   2.370       .  S
C151        C949   1.463       .  S
C152       C1022   1.472       .  S
C153        C990   1.485       .  S
C154       C1397   1.492       .  S
O155       Cu163   2.009       .  S
O155        C165   1.276       .  A
O156       Cu163   2.003   1_565  S
O156        C166   1.279       .  A
O157       Cu163   1.987   1_565  S
O157        C167   1.274       .  A
O158       Cu163   1.989       .  S
O158        C168   1.276       .  A
O159       Cu164   2.004       .  S
O159        C168   1.277       .  A
O160       Cu164   2.008   1_565  S
O160        C167   1.279       .  A
O161       Cu164   1.990   1_565  S
O161        C166   1.274       .  A
O162       Cu164   1.992       .  S
O162        C165   1.277       .  A
Cu163      Cu164   2.368       .  S
C165        C917   1.489       .  S
C166       C1598   1.475       .  S
C167        C958   1.477       .  S
C168       C1214   1.480       .  S
O169       Cu177   2.009   1_565  S
O169        C179   1.279       .  A
O170       Cu177   2.011       .  S
O170        C180   1.279       .  A
O171       Cu177   1.993       .  S
O171        C181   1.274       .  A
O172       Cu177   1.983   1_565  S
O172        C182   1.273       .  A
O173       Cu178   2.000   1_565  S
O173        C182   1.277       .  A
O174       Cu178   1.998       .  S
O174        C181   1.277       .  A
O175       Cu178   1.982       .  S
O175        C180   1.272       .  A
O176       Cu178   1.977   1_565  S
O176        C179   1.272       .  A
Cu177      Cu178   2.366       .  S
C179       C1342   1.483       .  S
C180        C885   1.487       .  S
C181        C821   1.484       .  S
C182        C853   1.465       .  S
O183       Cu191   2.010       .  S
O183        C193   1.277       .  A
O184       Cu191   2.003       .  S
O184        C194   1.276       .  A
O185       Cu191   1.986       .  S
O185        C195   1.273       .  A
O186       Cu191   1.989       .  S
O186        C196   1.275       .  A
O187       Cu192   2.004       .  S
O187        C196   1.277       .  A
O188       Cu192   2.006       .  S
O188        C195   1.278       .  A
O189       Cu192   1.982       .  S
O189        C194   1.276       .  A
O190       Cu192   1.986       .  S
O190        C193   1.276       .  A
Cu191      Cu192   2.370       .  S
C193        C789   1.478       .  S
C194       C1726   1.485       .  S
C195        C862   1.476       .  S
C196        C766   1.472       .  S
O197       Cu205   2.009       .  S
O197        C207   1.277       .  A
O198       Cu205   2.016       .  S
O198        C208   1.279       .  A
O199       Cu205   1.976       .  S
O199        C209   1.272       .  A
O200       Cu205   1.971       .  S
O200        C210   1.273       .  A
O201       Cu206   2.002       .  S
O201        C210   1.277       .  A
O202       Cu206   2.005       .  S
O202        C209   1.278       .  A
O203       Cu206   1.989       .  S
O203        C208   1.275       .  A
O204       Cu206   1.983       .  S
O204        C207   1.275       .  A
Cu205      Cu206   2.374       .  S
C207       C1438   1.479       .  S
C208        C725   1.471       .  S
C209        C661   1.466       .  S
C210        C693   1.469       .  S
O211       Cu219   1.982       .  S
O211        C221   1.272       .  A
O212       Cu219   1.978       .  S
O212        C222   1.273       .  A
O213       Cu219   2.008       .  S
O213        C223   1.276       .  A
O214       Cu219   2.005       .  S
O214        C224   1.276       .  A
O215       Cu220   2.005       .  S
O215        C224   1.278       .  A
O216       Cu220   2.004       .  S
O216        C223   1.276       .  A
O217       Cu220   2.000       .  S
O217        C222   1.277       .  A
O218       Cu220   2.008       .  S
O218        C221   1.279       .  A
Cu219      Cu220   2.369       .  S
C221        C757   1.485       .  S
C222        C702   1.462       .  S
C223       C1630   1.467   1_554  S
C224        C638   1.497       .  S
O225       Cu233   1.993       .  S
O225        C235   1.274       .  A
O226       Cu233   1.997       .  S
O226        C236   1.275       .  A
O227       Cu233   2.019       .  S
O227        C237   1.278       .  A
O228       Cu233   2.012       .  S
O228        C238   1.280       .  A
O229       Cu234   1.984       .  S
O229        C238   1.273       .  A
O230       Cu234   1.980       .  S
O230        C237   1.276       .  A
O231       Cu234   2.007       .  S
O231        C236   1.277       .  A
O232       Cu234   2.007       .  S
O232        C235   1.279       .  A
Cu233      Cu234   2.370       .  S
C235        C629   1.483       .  S
C236        C606   1.468       .  S
C237        C565   1.489       .  S
C238       C1045   1.472       .  S
O239       Cu247   2.002       .  S
O239        C249   1.277       .  A
O240       Cu247   1.998       .  S
O240        C250   1.278       .  A
O241       Cu247   1.994       .  S
O241        C251   1.275       .  A
O242       Cu247   1.986       .  S
O242        C252   1.273       .  A
O243       Cu248   2.015       .  S
O243        C252   1.279       .  A
O244       Cu248   2.016       .  S
O244        C251   1.278       .  A
O245       Cu248   2.015       .  S
O245        C250   1.277       .  A
O246       Cu248   2.004       .  S
O246        C249   1.276       .  A
Cu247      Cu248   2.367       .  S
C249        C574   1.483       .  S
C250       C1278   1.494   1_554  S
C251        C734   1.469   1_554  S
C252        C542   1.488       .  S
O253       Cu261   1.991       .  S
O253        C263   1.275       .  A
O254       Cu261   1.988       .  S
O254        C264   1.275       .  A
O255       Cu261   1.987       .  S
O255        C265   1.276       .  A
O256       Cu261   1.988       .  S
O256        C266   1.276       .  A
O257       Cu262   2.018       .  S
O257        C266   1.278       .  A
O258       Cu262   2.013       .  S
O258        C265   1.278       .  A
O259       Cu262   2.007       .  S
O259        C264   1.276       .  A
O260       Cu262   2.003       .  S
O260        C263   1.277       .  A
Cu261      Cu262   2.372       .  S
C263        C501   1.469       .  S
C264       C1173   1.465       .  S
C265        C894   1.486       .  S
C266        C533   1.480       .  S
O267       Cu275   2.014       .  S
O267        C277   1.277       .  A
O268       Cu275   2.017       .  S
O268        C278   1.278       .  A
O269       Cu275   1.981       .  S
O269        C279   1.275       .  A
O270       Cu275   1.981       .  S
O270        C280   1.272       .  A
O271       Cu276   1.996       .  S
O271        C280   1.278       .  A
O272       Cu276   1.997       .  S
O272        C279   1.276       .  A
O273       Cu276   1.995       .  S
O273        C278   1.275       .  A
O274       Cu276   1.998       .  S
O274        C277   1.278       .  A
Cu275      Cu276   2.369       .  S
C277        C469   1.494       .  S
C278       C1854   1.468       .  S
C279        C446   1.472       .  S
C280        C670   1.478       .  S
O281       Cu289   1.984       .  S
O281        C291   1.273       .  A
O282       Cu289   1.991       .  S
O282        C292   1.278       .  A
O283       Cu289   1.990       .  S
O283        C293   1.273       .  A
O284       Cu289   1.984       .  S
O284        C294   1.277       .  A
O285       Cu290   2.004       .  S
O285        C294   1.275       .  A
O286       Cu290   2.006       .  S
O286        C293   1.279       .  A
O287       Cu290   2.006       .  S
O287        C292   1.276       .  A
O288       Cu290   1.999       .  S
O288        C291   1.278       .  A
Cu289      Cu290   2.364       .  S
C291       C1534   1.486       .  S
C292        C405   1.488       .  S
C293        C830   1.475       .  S
C294        C437   1.487       .  S
O295       Cu303   1.990       .  S
O295        C305   1.274       .  A
O296       Cu303   1.987       .  S
O296        C306   1.274       .  A
O297       Cu303   2.011       .  S
O297        C307   1.277       .  A
O298       Cu303   2.013       .  S
O298        C308   1.279       .  A
O299       Cu304   2.004       .  S
O299        C308   1.276       .  A
O300       Cu304   2.001       .  S
O300        C307   1.276       .  A
O301       Cu304   2.003       .  S
O301        C306   1.278       .  A
O302       Cu304   2.009       .  S
O302        C305   1.279       .  A
Cu303      Cu304   2.370       .  S
C305        C350   1.479       .  S
C306        C926   1.477       .  S
C307        C478   1.473       .  S
C308        C373   1.486       .  S
O309       Cu317   1.983   1_545  S
O309        C319   1.273       .  A
O310       Cu317   1.982       .  S
O310        C320   1.273       .  A
O311       Cu317   1.995       .  S
O311        C321   1.273       .  A
O312       Cu317   1.995   1_545  S
O312        C322   1.275       .  A
O313       Cu318   2.009   1_545  S
O313        C322   1.277       .  A
O314       Cu318   2.012       .  S
O314        C321   1.280       .  A
O315       Cu318   2.010       .  S
O315        C320   1.279       .  A
O316       Cu318   2.008   1_545  S
O316        C319   1.279       .  A
Cu317      Cu318   2.365       .  S
C319        C510   1.483       .  S
C320        C981   1.484       .  S
C321        C798   1.496       .  S
C322        C382   1.470       .  S
O323       Cu331   2.011       .  S
O323        C333   1.277       .  A
O324       Cu331   2.011   1_655  S
O324        C334   1.277       .  A
O325       Cu331   2.001   1_655  S
O325        C335   1.275       .  A
O326       Cu331   2.001       .  S
O326        C336   1.277       .  A
O327       Cu332   2.004       .  S
O327        C336   1.277       .  A
O328       Cu332   2.003   1_655  S
O328        C335   1.279       .  A
O329       Cu332   1.987   1_655  S
O329        C334   1.276       .  A
O330       Cu332   1.987       .  S
O330        C333   1.274       .  A
Cu331      Cu332   2.369       .  S
C333        C597   1.464       .  S
C334        C414   1.483       .  S
C335       C1118   1.494       .  S
C336        C341   1.473       .  S
C337        C338   1.402       .  A
C337        C342   1.406       .  A
C337        H347   1.082       .  S
C338        C343   1.475       .  S
C338        C339   1.412       .  A
C339        C340   1.402       .  A
C339        C344   1.518       .  S
C340        C341   1.402       .  A
C340        H345   1.078       .  S
C341        C342   1.417       .  A
C342        C346   1.518       .  S
C343        C348   1.416       .  A
C343        C352   1.401       .  A
C344        F360   1.382       .  S
C344        F361   1.383       .  S
C344        F362   1.384       .  S
C346        F357   1.382       .  S
C346        F358   1.385       .  S
C346        F359   1.383       .  S
C348        C349   1.402       .  A
C348        C353   1.520       .  S
C349        C350   1.405       .  A
C349        H354   1.084       .  S
C350        C351   1.420       .  A
C351        C352   1.404       .  A
C351        C355   1.520       .  S
C352        H356   1.083       .  S
C353        F366   1.383       .  S
C353        F367   1.383       .  S
C353        F368   1.381       .  S
C355        F363   1.385       .  S
C355        F364   1.382       .  S
C355        F365   1.384       .  S
C369        C370   1.398       .  A
C369        C374   1.405       .  A
C369        H379   1.083       .  S
C370        C375   1.480       .  S
C370        C371   1.413       .  A
C371        C372   1.407       .  A
C371        C376   1.519       .  S
C372        C373   1.407       .  A
C372        H377   1.083       .  S
C373        C374   1.425       .  A
C374        C378   1.521       .  S
C375        C380   1.415       .  A
C375        C384   1.401       .  A
C376        F392   1.382       .  S
C376        F393   1.382       .  S
C376        F394   1.384       .  S
C378        F389   1.383       .  S
C378        F390   1.385       .  S
C378        F391   1.383       .  S
C380        C381   1.407       .  A
C380        C385   1.519       .  S
C381        C382   1.403       .  A
C381        H386   1.082       .  S
C382        C383   1.415       .  A
C383        C384   1.403       .  A
C383        C387   1.520       .  S
C384        H388   1.082       .  S
C385        F398   1.385       .  S
C385        F399   1.382       .  S
C385        F400   1.382       .  S
C387        F395   1.382       .  S
C387        F396   1.383   1_545  S
C387        F397   1.384       .  S
C401        C402   1.399       .  A
C401        C406   1.407       .  A
C401        H411   1.083       .  S
C402        C407   1.475       .  S
C402        C403   1.409       .  A
C403        C404   1.401       .  A
C403        C408   1.520       .  S
C404        C405   1.410       .  A
C404        H409   1.082       .  S
C405        C406   1.425       .  A
C406        C410   1.520       .  S
C407        C412   1.412       .  A
C407        C416   1.401       .  A
C408        F424   1.382       .  S
C408        F425   1.382       .  S
C408        F426   1.385       .  S
C410        F421   1.383       .  S
C410        F422   1.385       .  S
C410        F423   1.383       .  S
C412        C413   1.399       .  A
C412        C417   1.523       .  S
C413        C414   1.407       .  A
C413        H418   1.081       .  S
C414        C415   1.421       .  A
C415        C416   1.408       .  A
C415        C419   1.518       .  S
C416        H420   1.082       .  S
C417        F430   1.385       .  S
C417        F431   1.382       .  S
C417        F432   1.382       .  S
C419        F427   1.385       .  S
C419        F428   1.383       .  S
C419        F429   1.384       .  S
C433        C434   1.398       .  A
C433        C438   1.406       .  A
C433        H443   1.083       .  S
C434        C439   1.470       .  S
C434        C435   1.410       .  A
C435        C436   1.398       .  A
C435        C440   1.522       .  S
C436        C437   1.409       .  A
C436        H441   1.082       .  S
C437        C438   1.426       .  A
C438        C442   1.520       .  S
C439        C444   1.410       .  A
C439        C448   1.399       .  A
C440        F456   1.382       .  S
C440        F457   1.382       .  S
C440        F458   1.385       .  S
C442        F453   1.385       .  S
C442        F454   1.383       .  S
C442        F455   1.384       .  S
C444        C445   1.401       .  A
C444        C449   1.520       .  S
C445        C446   1.407   1_655  A
C445        H450   1.081       .  S
C446        C447   1.419       .  A
C447        C448   1.401   1_455  A
C447        C451   1.520       .  S
C448        H452   1.082       .  S
C449        F462   1.385       .  S
C449        F463   1.382       .  S
C449        F464   1.382       .  S
C451        F459   1.385       .  S
C451        F460   1.384       .  S
C451        F461   1.382       .  S
C465        C466   1.400       .  A
C465        C470   1.409       .  A
C465        H475   1.083       .  S
C466        C471   1.482       .  S
C466        C467   1.413       .  A
C467        C468   1.404       .  A
C467        C472   1.521       .  S
C468        C469   1.409       .  A
C468        H473   1.082       .  S
C469        C470   1.426       .  A
C470        C474   1.520       .  S
C471        C476   1.414       .  A
C471        C480   1.403       .  A
C472        F488   1.382       .  S
C472        F489   1.382       .  S
C472        F490   1.385       .  S
C474        F485   1.383       .  S
C474        F486   1.385       .  S
C474        F487   1.383       .  S
C476        C477   1.407       .  A
C476        C481   1.519       .  S
C477        C478   1.404       .  A
C477        H482   1.084       .  S
C478        C479   1.414       .  A
C479        C480   1.405       .  A
C479        C483   1.518       .  S
C480        H484   1.084       .  S
C481        F494   1.385       .  S
C481        F495   1.382       .  S
C481        F496   1.382       .  S
C483        F491   1.382       .  S
C483        F492   1.383       .  S
C483        F493   1.385       .  S
C497        C498   1.400       .  A
C497        C502   1.401       .  A
C497        H507   1.083       .  S
C498        C503   1.473       .  S
C498        C499   1.414       .  A
C499        C500   1.403       .  A
C499        C504   1.520       .  S
C500        C501   1.403       .  A
C500        H505   1.080       .  S
C501        C502   1.417       .  A
C502        C506   1.520       .  S
C503        C508   1.412       .  A
C503        C512   1.396       .  A
C504        F520   1.382       .  S
C504        F521   1.382       .  S
C504        F522   1.385       .  S
C506        F517   1.385       .  S
C506        F518   1.383       .  S
C506        F519   1.382       .  S
C508        C509   1.404       .  A
C508        C513   1.520       .  S
C509        C510   1.407       .  A
C509        H514   1.082       .  S
C510        C511   1.425       .  A
C511        C512   1.401       .  A
C511        C515   1.522       .  S
C512        H516   1.083       .  S
C513        F526   1.384       .  S
C513        F527   1.382       .  S
C513        F528   1.382       .  S
C515        F523   1.385       .  S
C515        F524   1.383       .  S
C515        F525   1.384       .  S
C529        C530   1.400       .  A
C529        C534   1.408       .  A
C529        H539   1.083       .  S
C530        C535   1.477       .  S
C530        C531   1.414       .  A
C531        C532   1.401       .  A
C531        C536   1.522       .  S
C532        C533   1.404       .  A
C532        H537   1.083       .  S
C533        C534   1.420       .  A
C534        C538   1.517       .  S
C535        C540   1.411       .  A
C535        C544   1.396       .  A
C536        F552   1.382       .  S
C536        F553   1.382       .  S
C536        F554   1.385       .  S
C538        F549   1.381       .  S
C538        F550   1.385       .  S
C538        F551   1.382       .  S
C540        C541   1.406       .  A
C540        C545   1.518       .  S
C541        C542   1.409       .  A
C541        H546   1.082       .  S
C542        C543   1.427       .  A
C543        C544   1.403       .  A
C543        C547   1.521       .  S
C544        H548   1.083       .  S
C545        F558   1.384       .  S
C545        F559   1.383       .  S
C545        F560   1.382       .  S
C547        F555   1.384       .  S
C547        F556   1.383       .  S
C547        F557   1.385       .  S
C561        C562   1.401       .  A
C561        C566   1.410       .  A
C561        H571   1.084       .  S
C562        C567   1.478       .  S
C562        C563   1.412       .  A
C563        C564   1.399       .  A
C563        C568   1.522       .  S
C564        C565   1.408       .  A
C564        H569   1.084       .  S
C565        C566   1.425       .  A
C566        C570   1.519       .  S
C567        C572   1.413       .  A
C567        C576   1.398       .  A
C568        F584   1.382       .  S
C568        F585   1.382       .  S
C568        F586   1.385       .  S
C570        F581   1.384       .  S
C570        F582   1.385       .  S
C570        F583   1.383       .  S
C572        C573   1.405       .  A
C572        C577   1.520       .  S
C573        C574   1.407       .  A
C573        H578   1.082       .  S
C574        C575   1.422       .  A
C575        C576   1.404       .  A
C575        C579   1.520       .  S
C576        H580   1.083       .  S
C577        F590   1.385       .  S
C577        F591   1.382       .  S
C577        F592   1.382       .  S
C579        F587   1.384       .  S
C579        F588   1.383       .  S
C579        F589   1.385       .  S
C593        C594   1.400       .  A
C593        C598   1.402       .  A
C593        H603   1.083       .  S
C594        C599   1.474       .  S
C594        C595   1.416       .  A
C595        C596   1.404       .  A
C595        C600   1.520       .  S
C596        C597   1.400       .  A
C596        H601   1.083       .  S
C597        C598   1.413       .  A
C598        C602   1.515       .  S
C599        C604   1.415       .  A
C599        C608   1.401       .  A
C600        F616   1.382       .  S
C600        F617   1.382       .  S
C600        F618   1.385       .  S
C602        F613   1.384       .  S
C602        F614   1.380       .  S
C602        F615   1.383       .  S
C604        C605   1.404       .  A
C604        C609   1.521       .  S
C605        C606   1.402       .  A
C605        H610   1.083       .  S
C606        C607   1.414       .  A
C607        C608   1.404       .  A
C607        C611   1.518       .  S
C608        H612   1.083       .  S
C609        F622   1.384       .  S
C609        F623   1.383       .  S
C609        F624   1.382       .  S
C611        F619   1.384       .  S
C611        F620   1.384       .  S
C611        F621   1.382       .  S
C625        C626   1.399       .  A
C625        C630   1.407       .  A
C625        H635   1.084       .  S
C626        C631   1.478       .  S
C626        C627   1.414       .  A
C627        C628   1.402       .  A
C627        C632   1.521       .  S
C628        C629   1.405       .  A
C628        H633   1.083       .  S
C629        C630   1.424       .  A
C630        C634   1.520       .  S
C631        C636   1.409       .  A
C631        C640   1.397       .  A
C632        F648   1.382       .  S
C632        F649   1.382       .  S
C632        F650   1.384       .  S
C634        F645   1.384       .  S
C634        F646   1.385       .  S
C634        F647   1.383       .  S
C636        C637   1.406       .  A
C636        C641   1.520       .  S
C637        C638   1.413       .  A
C637        H642   1.082       .  S
C638        C639   1.429       .  A
C639        C640   1.405       .  A
C639        C643   1.521       .  S
C640        H644   1.084       .  S
C641        F654   1.384       .  S
C641        F655   1.383       .  S
C641        F656   1.382       .  S
C643        F651   1.383       .  S
C643        F652   1.383       .  S
C643        F653   1.385       .  S
C657        C658   1.397       .  A
C657        C662   1.400       .  A
C657        H667   1.083       .  S
C658        C663   1.468       .  S
C658        C659   1.415       .  A
C659        C660   1.402       .  A
C659        C664   1.521       .  S
C660        C661   1.402       .  A
C660        H665   1.083       .  S
C661        C662   1.419       .  A
C662        C666   1.521       .  S
C663        C668   1.410       .  A
C663        C672   1.395       .  A
C664        F680   1.382       .  S
C664        F681   1.382       .  S
C664        F682   1.384       .  S
C666        F677   1.385       .  S
C666        F678   1.383       .  S
C666        F679   1.382       .  S
C668        C669   1.402       .  A
C668        C673   1.519       .  S
C669        C670   1.407       .  A
C669        H674   1.083       .  S
C670        C671   1.425       .  A
C671        C672   1.399       .  A
C671        C675   1.523       .  S
C672        H676   1.084       .  S
C673        F686   1.385       .  S
C673        F687   1.382       .  S
C673        F688   1.382       .  S
C675        F683   1.383       .  S
C675        F684   1.384       .  S
C675        F685   1.385       .  S
C689        C690   1.400       .  A
C689        C694   1.402       .  A
C689        H699   1.083       .  S
C690        C695   1.467       .  S
C690        C691   1.412       .  A
C691        C692   1.398       .  A
C691        C696   1.522       .  S
C692        C693   1.404       .  A
C692        H697   1.082       .  S
C693        C694   1.417       .  A
C694        C698   1.519       .  S
C695        C700   1.412       .  A
C695        C704   1.399       .  A
C696        F712   1.382       .  S
C696        F713   1.382       .  S
C696        F714   1.385       .  S
C698        F709   1.385       .  S
C698        F710   1.382       .  S
C698        F711   1.384       .  S
C700        C701   1.402       .  A
C700        C705   1.519       .  S
C701        C702   1.402   1_556  A
C701        H706   1.084       .  S
C702        C703   1.416       .  A
C703        C704   1.399   1_554  A
C703        C707   1.520       .  S
C704        H708   1.084       .  S
C705        F718   1.385       .  S
C705        F719   1.382       .  S
C705        F720   1.382       .  S
C707        F715   1.385       .  S
C707        F716   1.383       .  S
C707        F717   1.382       .  S
C721        C722   1.402       .  A
C721        C726   1.404       .  A
C721        H731   1.084       .  S
C722        C727   1.479       .  S
C722        C723   1.414       .  A
C723        C724   1.405       .  A
C723        C728   1.519       .  S
C724        C725   1.403       .  A
C724        H729   1.084       .  S
C725        C726   1.415       .  A
C726        C730   1.518       .  S
C727        C732   1.415       .  A
C727        C736   1.401       .  A
C728        F744   1.382       .  S
C728        F745   1.382       .  S
C728        F746   1.384       .  S
C730        F741   1.384       .  S
C730        F742   1.383       .  S
C730        F743   1.382       .  S
C732        C733   1.406       .  A
C732        C737   1.519       .  S
C733        C734   1.402       .  A
C733        H738   1.082       .  S
C734        C735   1.414   1_556  A
C735        C736   1.404   1_554  A
C735        C739   1.517       .  S
C736        H740   1.082       .  S
C737        F750   1.384       .  S
C737        F751   1.382       .  S
C737        F752   1.382       .  S
C739        F747   1.384       .  S
C739        F748   1.382       .  S
C739        F749   1.383       .  S
C753        C754   1.397       .  A
C753        C758   1.402       .  A
C753        H763   1.083       .  S
C754        C759   1.474       .  S
C754        C755   1.412       .  A
C755        C756   1.404       .  A
C755        C760   1.520       .  S
C756        C757   1.408       .  A
C756        H761   1.082       .  S
C757        C758   1.426       .  A
C758        C762   1.522       .  S
C759        C764   1.413       .  A
C759        C768   1.402       .  A
C760        F776   1.382       .  S
C760        F777   1.382       .  S
C760        F778   1.384       .  S
C762        F773   1.385       .  S
C762        F774   1.383       .  S
C762        F775   1.384       .  S
C764        C765   1.402       .  A
C764        C769   1.521       .  S
C765        C766   1.404       .  A
C765        H770   1.082       .  S
C766        C767   1.417       .  A
C767        C768   1.404       .  A
C767        C771   1.520       .  S
C768        H772   1.083       .  S
C769        F782   1.385       .  S
C769        F783   1.382       .  S
C769        F784   1.382       .  S
C771        F779   1.384       .  S
C771        F780   1.382       .  S
C771        F781   1.385       .  S
C785        C786   1.401       .  A
C785        C790   1.407       .  A
C785        H795   1.082       .  S
C786        C791   1.477       .  S
C786        C787   1.413       .  A
C787        C788   1.400       .  A
C787        C792   1.521       .  S
C788        C789   1.405       .  A
C788        H793   1.082       .  S
C789        C790   1.419       .  A
C790        C794   1.518       .  S
C791        C796   1.410       .  A
C791        C800   1.396       .  A
C792        F808   1.382       .  S
C792        F809   1.382       .  S
C792        F810   1.384       .  S
C794        F805   1.382       .  S
C794        F806   1.384       .  S
C794        F807   1.383       .  S
C796        C797   1.405       .  A
C796        C801   1.521       .  S
C797        C798   1.412       .  A
C797        H802   1.081       .  S
C798        C799   1.430       .  A
C799        C800   1.406       .  A
C799        C803   1.522       .  S
C800        H804   1.082       .  S
C801        F814   1.384       .  S
C801        F815   1.382       .  S
C801        F816   1.382       .  S
C803        F811   1.383       .  S
C803        F812   1.383       .  S
C803        F813   1.385       .  S
C817        C818   1.397       .  A
C817        C822   1.401       .  A
C817        H827   1.085       .  S
C818        C823   1.474       .  S
C818        C819   1.410       .  A
C819        C820   1.404       .  A
C819        C824   1.519       .  S
C820        C821   1.409       .  A
C820        H825   1.084       .  S
C821        C822   1.425       .  A
C822        C826   1.522       .  S
C823        C828   1.415       .  A
C823        C832   1.398       .  A
C824        F840   1.382       .  S
C824        F841   1.382       .  S
C824        F842   1.385       .  S
C826        F837   1.384       .  S
C826        F838   1.385       .  S
C826        F839   1.383       .  S
C828        C829   1.402       .  A
C828        C833   1.521       .  S
C829        C830   1.403       .  A
C829        H834   1.085       .  S
C830        C831   1.421       .  A
C831        C832   1.404       .  A
C831        C835   1.520       .  S
C832        H836   1.084       .  S
C833        F846   1.384       .  S
C833        F847   1.382       .  S
C833        F848   1.382       .  S
C835        F843   1.383       .  S
C835        F844   1.383       .  S
C835        F845   1.385       .  S
C849        C850   1.399       .  A
C849        C854   1.403       .  A
C849        H859   1.083       .  S
C850        C855   1.471       .  S
C850        C851   1.416       .  A
C851        C852   1.400       .  A
C851        C856   1.521       .  S
C852        C853   1.399       .  A
C852        H857   1.083       .  S
C853        C854   1.418       .  A
C854        C858   1.520       .  S
C855        C860   1.411       .  A
C855        C864   1.395       .  A
C856        F872   1.382       .  S
C856        F873   1.382       .  S
C856        F874   1.384       .  S
C858        F869   1.382       .  S
C858        F870   1.385       .  S
C858        F871   1.383       .  S
C860        C861   1.405       .  A
C860        C865   1.519       .  S
C861        C862   1.406       .  A
C861        H866   1.082       .  S
C862        C863   1.423       .  A
C863        C864   1.400       .  A
C863        C867   1.522       .  S
C864        H868   1.083       .  S
C865        F878   1.384       .  S
C865        F879   1.383       .  S
C865        F880   1.383       .  S
C867        F875   1.383       .  S
C867        F876   1.383       .  S
C867        F877   1.385       .  S
C881        C882   1.397       .  A
C881        C886   1.401       .  A
C881        H891   1.084       .  S
C882        C887   1.475       .  S
C882        C883   1.411       .  A
C883        C884   1.406       .  A
C883        C888   1.519       .  S
C884        C885   1.410       .  A
C884        H889   1.083       .  S
C885        C886   1.427       .  A
C886        C890   1.524       .  S
C887        C892   1.413       .  A
C887        C896   1.400       .  A
C888        F904   1.382       .  S
C888        F905   1.382       .  S
C888        F906   1.385       .  S
C890        F901   1.384       .  S
C890        F902   1.385       .  S
C890        F903   1.383       .  S
C892        C893   1.401       .  A
C892        C897   1.522       .  S
C893        C894   1.408       .  A
C893        H898   1.083       .  S
C894        C895   1.422       .  A
C895        C896   1.406       .  A
C895        C899   1.519       .  S
C896        H900   1.084       .  S
C897        F910   1.385       .  S
C897        F911   1.382       .  S
C897        F912   1.381       .  S
C899        F907   1.383       .  S
C899        F908   1.383       .  S
C899        F909   1.385       .  S
C913        C914   1.399       .  A
C913        C918   1.406       .  A
C913        H923   1.082       .  S
C914        C919   1.475       .  S
C914        C915   1.412       .  A
C915        C916   1.401       .  A
C915        C920   1.522       .  S
C916        C917   1.410       .  A
C916        H921   1.081       .  S
C917        C918   1.424       .  A
C918        C922   1.519       .  S
C919        C924   1.412       .  A
C919        C928   1.399       .  A
C920        F936   1.382       .  S
C920        F937   1.382       .  S
C920        F938   1.385       .  S
C922        F933   1.384       .  S
C922        F934   1.385       .  S
C922        F935   1.383       .  S
C924        C925   1.404       .  A
C924        C929   1.519       .  S
C925        C926   1.406       .  A
C925        H930   1.083       .  S
C926        C927   1.421       .  A
C927        C928   1.402       .  A
C927        C931   1.521       .  S
C928        H932   1.084       .  S
C929        F942   1.385       .  S
C929        F943   1.382       .  S
C929        F944   1.382       .  S
C931        F939   1.384       .  S
C931        F940   1.383       .  S
C931        F941   1.385       .  S
C945        C946   1.401       .  A
C945        C950   1.405       .  A
C945        H955   1.083       .  S
C946        C951   1.473       .  S
C946        C947   1.415       .  A
C947        C948   1.400       .  A
C947        C952   1.520       .  S
C948        C949   1.399       .  A
C948        H953   1.081       .  S
C949        C950   1.413       .  A
C950        C954   1.517       .  S
C951        C956   1.413       .  A
C951        C960   1.397       .  A
C952        F968   1.382       .  S
C952        F969   1.382       .  S
C952        F970   1.385       .  S
C954        F965   1.385       .  S
C954        F966   1.383       .  S
C954        F967   1.382       .  S
C956        C957   1.403       .  A
C956        C961   1.519       .  S
C957        C958   1.404       .  A
C957        H962   1.082       .  S
C958        C959   1.423       .  A
C959        C960   1.403       .  A
C959        C963   1.521       .  S
C960        H964   1.083       .  S
C961        F974   1.384       .  S
C961        F975   1.383       .  S
C961        F976   1.382       .  S
C963        F971   1.385       .  S
C963        F972   1.383       .  S
C963        F973   1.382       .  S
C977        C978   1.398       .  A
C977        C982   1.402       .  A
C977        H987   1.084       .  S
C978        C983   1.477       .  S
C978        C979   1.413       .  A
C979        C980   1.404       .  A
C979        C984   1.520       .  S
C980        C981   1.408       .  A
C980        H985   1.083       .  S
C981        C982   1.424       .  A
C982        C986   1.521       .  S
C983        C988   1.413       .  A
C983        C992   1.398       .  A
C984       F1000   1.382       .  S
C984       F1001   1.382       .  S
C984       F1002   1.385       .  S
C986        F997   1.385       .  S
C986        F998   1.383       .  S
C986        F999   1.383       .  S
C988        C989   1.405       .  A
C988        C993   1.520       .  S
C989        C990   1.407       .  A
C989        H994   1.084       .  S
C990        C991   1.425       .  A
C991        C992   1.403       .  A
C991        C995   1.522       .  S
C992        H996   1.084       .  S
C993       F1006   1.384       .  S
C993       F1007   1.382       .  S
C993       F1008   1.382       .  S
C995       F1003   1.385       .  S
C995       F1004   1.382       .  S
C995       F1005   1.383       .  S
C1009      C1010   1.396       .  A
C1009      C1014   1.405       .  A
C1009      H1019   1.083       .  S
C1010      C1015   1.476       .  S
C1010      C1011   1.410       .  A
C1011      C1012   1.403       .  A
C1011      C1016   1.520       .  S
C1012      C1013   1.410       .  A
C1012      H1017   1.082       .  S
C1013      C1014   1.430       .  A
C1014      C1018   1.523       .  S
C1015      C1020   1.415       .  A
C1015      C1024   1.401       .  A
C1016      F1032   1.382       .  S
C1016      F1033   1.383       .  S
C1016      F1034   1.384       .  S
C1018      F1029   1.383       .  S
C1018      F1030   1.385       .  S
C1018      F1031   1.380       .  S
C1020      C1021   1.400       .  A
C1020      C1025   1.521       .  S
C1021      C1022   1.402       .  A
C1021      H1026   1.083       .  S
C1022      C1023   1.418       .  A
C1023      C1024   1.406       .  A
C1023      C1027   1.519       .  S
C1024      H1028   1.083       .  S
C1025      F1038   1.385       .  S
C1025      F1039   1.382       .  S
C1025      F1040   1.382       .  S
C1027      F1035   1.382       .  S
C1027      F1036   1.384       .  S
C1027      F1037   1.385       .  S
C1041      C1042   1.400       .  A
C1041      C1046   1.404       .  A
C1041      H1051   1.084       .  S
C1042      C1047   1.473       .  S
C1042      C1043   1.414       .  A
C1043      C1044   1.402       .  A
C1043      C1048   1.520       .  S
C1044      C1045   1.402       .  A
C1044      H1049   1.083       .  S
C1045      C1046   1.419       .  A
C1046      C1050   1.521       .  S
C1047      C1052   1.412       .  A
C1047      C1056   1.397       .  A
C1048      F1064   1.382       .  S
C1048      F1065   1.382       .  S
C1048      F1066   1.384       .  S
C1050      F1061   1.382       .  S
C1050      F1062   1.385       .  S
C1050      F1063   1.383       .  S
C1052      C1053   1.405       .  A
C1052      C1057   1.519       .  S
C1053      C1054   1.409       .  A
C1053      H1058   1.082       .  S
C1054      C1055   1.422       .  A
C1055      C1056   1.400       .  A
C1055      C1059   1.518       .  S
C1056      H1060   1.083       .  S
C1057      F1070   1.385       .  S
C1057      F1071   1.382       .  S
C1057      F1072   1.382       .  S
C1059      F1067   1.385       .  S
C1059      F1068   1.382       .  S
C1059      F1069   1.381       .  S
C1073      C1074   1.401       .  A
C1073      C1078   1.400       .  A
C1073      H1083   1.083       .  S
C1074      C1079   1.477       .  S
C1074      C1075   1.415       .  A
C1075      C1076   1.406       .  A
C1075      C1080   1.518       .  S
C1076      C1077   1.403       .  A
C1076      H1081   1.083       .  S
C1077      C1078   1.416       .  A
C1078      C1082   1.522       .  S
C1079      C1084   1.411       .  A
C1079      C1088   1.400       .  A
C1080      F1096   1.382       .  S
C1080      F1097   1.382       .  S
C1080      F1098   1.384       .  S
C1082      F1093   1.385       .  S
C1082      F1094   1.382       .  S
C1082      F1095   1.384       .  S
C1084      C1085   1.401       .  A
C1084      C1089   1.521       .  S
C1085      C1086   1.411       .  A
C1085      H1090   1.081       .  S
C1086      C1087   1.424       .  A
C1087      C1088   1.407       .  A
C1087      C1091   1.519       .  S
C1088      H1092   1.082       .  S
C1089      F1102   1.385       .  S
C1089      F1103   1.382       .  S
C1089      F1104   1.382       .  S
C1091      F1099   1.385       .  S
C1091      F1100   1.383       .  S
C1091      F1101   1.384       .  S
C1105      C1106   1.397       .  A
C1105      C1110   1.406       .  A
C1105      H1115   1.082       .  S
C1106      C1111   1.481       .  S
C1106      C1107   1.413       .  A
C1107      C1108   1.405       .  A
C1107      C1112   1.521       .  S
C1108      C1109   1.410       .  A
C1108      H1113   1.082       .  S
C1109      C1110   1.428       .  A
C1110      C1114   1.522       .  S
C1111      C1116   1.411       .  A
C1111      C1120   1.398       .  A
C1112      F1128   1.382       .  S
C1112      F1129   1.382       .  S
C1112      F1130   1.385       .  S
C1114      F1125   1.384       .  S
C1114      F1126   1.385       .  S
C1114      F1127   1.383       .  S
C1116      C1117   1.404       .  A
C1116      C1121   1.521       .  S
C1117      C1118   1.410       .  A
C1117      H1122   1.081       .  S
C1118      C1119   1.429       .  A
C1119      C1120   1.408       .  A
C1119      C1123   1.522       .  S
C1120      H1124   1.082       .  S
C1121      F1134   1.384       .  S
C1121      F1135   1.382       .  S
C1121      F1136   1.383       .  S
C1123      F1131   1.383       .  S
C1123      F1132   1.384       .  S
C1123      F1133   1.385       .  S
C1137      C1138   1.402       .  A
C1137      C1142   1.406       .  A
C1137      H1147   1.083       .  S
C1138      C1143   1.472       .  S
C1138      C1139   1.415       .  A
C1139      C1140   1.397       .  A
C1139      C1144   1.522       .  S
C1140      C1141   1.399       .  A
C1140      H1145   1.081       .  S
C1141      C1142   1.416       .  A
C1142      C1146   1.518       .  S
C1143      C1148   1.413       .  A
C1143      C1152   1.401       .  A
C1144      F1160   1.382       .  S
C1144      F1161   1.382       .  S
C1144      F1162   1.385       .  S
C1146      F1157   1.385       .  S
C1146      F1158   1.383       .  S
C1146      F1159   1.382       .  S
C1148      C1149   1.404       .  A
C1148      C1153   1.518       .  S
C1149      C1150   1.402       .  A
C1149      H1154   1.083       .  S
C1150      C1151   1.410       .  A
C1151      C1152   1.400       .  A
C1151      C1155   1.517       .  S
C1152      H1156   1.083       .  S
C1153      F1166   1.385       .  S
C1153      F1167   1.382       .  S
C1153      F1168   1.382       .  S
C1155      F1163   1.384       .  S
C1155      F1164   1.383       .  S
C1155      F1165   1.382       .  S
C1169      C1170   1.402       .  A
C1169      C1174   1.402       .  A
C1169      H1179   1.082       .  S
C1170      C1175   1.476       .  S
C1170      C1171   1.414       .  A
C1171      C1172   1.405       .  A
C1171      C1176   1.518       .  S
C1172      C1173   1.403       .  A
C1172      H1177   1.081       .  S
C1173      C1174   1.413       .  A
C1174      C1178   1.519       .  S
C1175      C1180   1.416       .  A
C1175      C1184   1.399       .  A
C1176      F1192   1.382       .  S
C1176      F1193   1.382       .  S
C1176      F1194   1.385       .  S
C1178      F1189   1.382       .  S
C1178      F1190   1.384       .  S
C1178      F1191   1.384       .  S
C1180      C1181   1.403       .  A
C1180      C1185   1.521       .  S
C1181      C1182   1.403       .  A
C1181      H1186   1.082       .  S
C1182      C1183   1.420       .  A
C1183      C1184   1.405       .  A
C1183      C1187   1.517       .  S
C1184      H1188   1.083       .  S
C1185      F1198   1.384       .  S
C1185      F1199   1.382       .  S
C1185      F1200   1.382       .  S
C1187      F1195   1.382       .  S
C1187      F1196   1.382       .  S
C1187      F1197   1.385       .  S
C1201      C1202   1.400       .  A
C1201      C1206   1.403       .  A
C1201      H1211   1.083       .  S
C1202      C1207   1.474       .  S
C1202      C1203   1.414       .  A
C1203      C1204   1.403       .  A
C1203      C1208   1.520       .  S
C1204      C1205   1.403       .  A
C1204      H1209   1.083       .  S
C1205      C1206   1.418       .  A
C1206      C1210   1.520       .  S
C1207      C1212   1.412       .  A
C1207      C1216   1.399       .  A
C1208      F1224   1.382       .  S
C1208      F1225   1.382       .  S
C1208      F1226   1.385       .  S
C1210      F1221   1.383       .  S
C1210      F1222   1.385       .  S
C1210      F1223   1.382       .  S
C1212      C1213   1.404       .  A
C1212      C1217   1.520       .  S
C1213      C1214   1.408       .  A
C1213      H1218   1.083       .  S
C1214      C1215   1.421       .  A
C1215      C1216   1.403       .  A
C1215      C1219   1.521       .  S
C1216      H1220   1.083       .  S
C1217      F1230   1.385       .  S
C1217      F1231   1.382       .  S
C1217      F1232   1.381       .  S
C1219      F1227   1.384       .  S
C1219      F1228   1.382       .  S
C1219      F1229   1.385       .  S
C1233      C1234   1.403       .  A
C1233      C1238   1.404       .  A
C1233      H1243   1.081       .  S
C1234      C1239   1.473       .  S
C1234      C1235   1.414       .  A
C1235      C1236   1.402       .  A
C1235      C1240   1.521       .  S
C1236      C1237   1.401       .  A
C1236      H1241   1.082       .  S
C1237      C1238   1.411       .  A
C1238      C1242   1.517       .  S
C1239      C1244   1.414       .  A
C1239      C1248   1.401       .  A
C1240      F1256   1.382       .  S
C1240      F1257   1.382       .  S
C1240      F1258   1.385       .  S
C1242      F1253   1.384       .  S
C1242      F1254   1.383       .  S
C1242      F1255   1.383       .  S
C1244      C1245   1.402       .  A
C1244      C1249   1.520       .  S
C1245      C1246   1.402       .  A
C1245      H1250   1.084       .  S
C1246      C1247   1.415   1_556  A
C1247      C1248   1.403   1_554  A
C1247      C1251   1.517       .  S
C1248      H1252   1.083       .  S
C1249      F1262   1.385       .  S
C1249      F1263   1.382       .  S
C1249      F1264   1.382       .  S
C1251      F1259   1.385       .  S
C1251      F1260   1.382       .  S
C1251      F1261   1.382       .  S
C1265      C1266   1.402       .  A
C1265      C1270   1.407       .  A
C1265      H1275   1.083       .  S
C1266      C1271   1.481       .  S
C1266      C1267   1.415       .  A
C1267      C1268   1.404       .  A
C1267      C1272   1.520       .  S
C1268      C1269   1.403       .  A
C1268      H1273   1.083       .  S
C1269      C1270   1.417       .  A
C1270      C1274   1.518       .  S
C1271      C1276   1.412       .  A
C1271      C1280   1.399       .  A
C1272      F1288   1.382       .  S
C1272      F1289   1.382       .  S
C1272      F1290   1.385       .  S
C1274      F1285   1.385       .  S
C1274      F1286   1.384       .  S
C1274      F1287   1.382       .  S
C1276      C1277   1.402       .  A
C1276      C1281   1.522       .  S
C1277      C1278   1.409       .  A
C1277      H1282   1.083       .  S
C1278      C1279   1.427       .  A
C1279      C1280   1.410       .  A
C1279      C1283   1.520   1_556  S
C1280      H1284   1.084       .  S
C1281      F1294   1.385       .  S
C1281      F1295   1.382       .  S
C1281      F1296   1.383       .  S
C1283      F1291   1.385       .  S
C1283      F1292   1.383       .  S
C1283      F1293   1.384       .  S
C1297      C1298   1.397       .  A
C1297      C1302   1.404       .  A
C1297      H1307   1.082       .  S
C1298      C1303   1.470       .  S
C1298      C1299   1.414       .  A
C1299      C1300   1.402       .  A
C1299      C1304   1.522       .  S
C1300      C1301   1.404       .  A
C1300      H1305   1.081       .  S
C1301      C1302   1.425       .  A
C1302      C1306   1.521       .  S
C1303      C1308   1.411       .  A
C1303      C1312   1.400       .  A
C1304      F1320   1.382       .  S
C1304      F1321   1.382       .  S
C1304      F1322   1.384       .  S
C1306      F1317   1.385       .  S
C1306      F1318   1.383       .  S
C1306      F1319   1.384       .  S
C1308      C1309   1.405       .  A
C1308      C1313   1.518       .  S
C1309      C1310   1.404       .  A
C1309      H1314   1.082       .  S
C1310      C1311   1.415       .  A
C1311      C1312   1.398       .  A
C1311      C1315   1.520       .  S
C1312      H1316   1.083       .  S
C1313      F1326   1.385       .  S
C1313      F1327   1.382       .  S
C1313      F1328   1.381       .  S
C1315      F1323   1.385       .  S
C1315      F1324   1.383   1_655  S
C1315      F1325   1.382       .  S
C1329      C1330   1.397       .  A
C1329      C1334   1.401       .  A
C1329      H1339   1.083       .  S
C1330      C1335   1.467       .  S
C1330      C1331   1.413       .  A
C1331      C1332   1.401       .  A
C1331      C1336   1.520       .  S
C1332      C1333   1.402       .  A
C1332      H1337   1.082       .  S
C1333      C1334   1.421       .  A
C1334      C1338   1.521       .  S
C1335      C1340   1.409       .  A
C1335      C1344   1.394       .  A
C1336      F1352   1.382       .  S
C1336      F1353   1.381       .  S
C1336      F1354   1.385       .  S
C1338      F1349   1.385       .  S
C1338      F1350   1.383       .  S
C1338      F1351   1.382       .  S
C1340      C1341   1.403       .  A
C1340      C1345   1.520       .  S
C1341      C1342   1.409       .  A
C1341      H1346   1.080       .  S
C1342      C1343   1.427       .  A
C1343      C1344   1.400       .  A
C1343      C1347   1.522       .  S
C1344      H1348   1.082       .  S
C1345      F1358   1.384       .  S
C1345      F1359   1.383       .  S
C1345      F1360   1.381       .  S
C1347      F1355   1.384       .  S
C1347      F1356   1.383       .  S
C1347      F1357   1.385       .  S
C1361      C1362   1.401       .  A
C1361      C1366   1.403       .  A
C1361      H1371   1.083       .  S
C1362      C1367   1.471       .  S
C1362      C1363   1.416       .  A
C1363      C1364   1.400       .  A
C1363      C1368   1.521       .  S
C1364      C1365   1.398       .  A
C1364      H1369   1.083   1_655  S
C1365      C1366   1.413       .  A
C1366      C1370   1.517       .  S
C1367      C1372   1.414       .  A
C1367      C1376   1.401       .  A
C1368      F1384   1.382       .  S
C1368      F1385   1.382       .  S
C1368      F1386   1.385       .  S
C1370      F1381   1.382       .  S
C1370      F1382   1.384       .  S
C1370      F1383   1.383       .  S
C1372      C1373   1.404       .  A
C1372      C1377   1.520       .  S
C1373      C1374   1.403       .  A
C1373      H1378   1.083       .  S
C1374      C1375   1.411       .  A
C1375      C1376   1.400       .  A
C1375      C1379   1.518       .  S
C1376      H1380   1.083       .  S
C1377      F1390   1.385       .  S
C1377      F1391   1.382       .  S
C1377      F1392   1.382       .  S
C1379      F1387   1.383       .  S
C1379      F1388   1.382       .  S
C1379      F1389   1.384       .  S
C1393      C1394   1.397       .  A
C1393      C1398   1.405       .  A
C1393      H1403   1.082       .  S
C1394      C1399   1.478       .  S
C1394      C1395   1.412       .  A
C1395      C1396   1.404       .  A
C1395      C1400   1.521       .  S
C1396      C1397   1.409       .  A
C1396      H1401   1.081       .  S
C1397      C1398   1.428       .  A
C1398      C1402   1.522       .  S
C1399      C1404   1.414       .  A
C1399      C1408   1.399       .  A
C1400      F1416   1.382       .  S
C1400      F1417   1.382       .  S
C1400      F1418   1.384       .  S
C1402      F1413   1.383       .  S
C1402      F1414   1.385       .  S
C1402      F1415   1.383       .  S
C1404      C1405   1.406       .  A
C1404      C1409   1.519       .  S
C1405      C1406   1.405       .  A
C1405      H1410   1.083       .  S
C1406      C1407   1.420       .  A
C1407      C1408   1.402       .  A
C1407      C1411   1.521       .  S
C1408      H1412   1.083       .  S
C1409      F1422   1.384       .  S
C1409      F1423   1.382       .  S
C1409      F1424   1.382       .  S
C1411      F1419   1.383       .  S
C1411      F1420   1.382       .  S
C1411      F1421   1.385       .  S
C1425      C1426   1.396       .  A
C1425      C1430   1.400       .  A
C1425      H1435   1.083       .  S
C1426      C1431   1.470       .  S
C1426      C1427   1.408       .  A
C1427      C1428   1.404       .  A
C1427      C1432   1.520       .  S
C1428      C1429   1.412       .  A
C1428      H1433   1.081       .  S
C1429      C1430   1.426       .  A
C1430      C1434   1.522       .  S
C1431      C1436   1.413       .  A
C1431      C1440   1.399       .  A
C1432      F1448   1.383       .  S
C1432      F1449   1.381       .  S
C1432      F1450   1.385       .  S
C1434      F1445   1.383       .  S
C1434      F1446   1.385       .  S
C1434      F1447   1.384       .  S
C1436      C1437   1.400       .  A
C1436      C1441   1.524       .  S
C1437      C1438   1.406       .  A
C1437      H1442   1.083       .  S
C1438      C1439   1.421       .  A
C1439      C1440   1.405       .  A
C1439      C1443   1.519       .  S
C1440      H1444   1.083       .  S
C1441      F1454   1.385       .  S
C1441      F1455   1.382       .  S
C1441      F1456   1.381       .  S
C1443      F1451   1.383       .  S
C1443      F1452   1.383       .  S
C1443      F1453   1.385       .  S
C1457      C1458   1.400       .  A
C1457      C1462   1.407       .  A
C1457      H1467   1.084       .  S
C1458      C1463   1.484       .  S
C1458      C1459   1.414       .  A
C1459      C1460   1.406       .  A
C1459      C1464   1.519       .  S
C1460      C1461   1.406       .  A
C1460      H1465   1.084       .  S
C1461      C1462   1.421       .  A
C1462      C1466   1.520       .  S
C1463      C1468   1.417       .  A
C1463      C1472   1.402       .  A
C1464      F1480   1.382       .  S
C1464      F1481   1.383       .  S
C1464      F1482   1.384       .  S
C1466      F1477   1.385       .  S
C1466      F1478   1.382       .  S
C1466      F1479   1.384       .  S
C1468      C1469   1.403       .  A
C1468      C1473   1.521       .  S
C1469      C1470   1.401       .  A
C1469      H1474   1.084       .  S
C1470      C1471   1.418       .  A
C1471      C1472   1.409       .  A
C1471      C1475   1.519       .  S
C1472      H1476   1.084       .  S
C1473      F1486   1.385       .  S
C1473      F1487   1.382       .  S
C1473      F1488   1.383       .  S
C1475      F1483   1.384       .  S
C1475      F1484   1.383       .  S
C1475      F1485   1.384       .  S
C1489      C1490   1.400       .  A
C1489      C1494   1.405       .  A
C1489      H1499   1.081       .  S
C1490      C1495   1.474       .  S
C1490      C1491   1.417       .  A
C1491      C1492   1.403       .  A
C1491      C1496   1.522       .  S
C1492      C1493   1.399       .  A
C1492      H1497   1.090       .  S
C1493      C1494   1.416       .  A
C1494      C1498   1.518       .  S
C1495      C1500   1.411       .  A
C1495      C1504   1.400       .  A
C1496      F1512   1.382       .  S
C1496      F1513   1.382       .  S
C1496      F1514   1.384       .  S
C1498      F1509   1.385       .  S
C1498      F1510   1.383       .  S
C1498      F1511   1.382       .  S
C1500      C1501   1.400       .  A
C1500      C1505   1.520       .  S
C1501      C1502   1.405       .  A
C1501      H1506   1.085       .  S
C1502      C1503   1.421       .  A
C1503      C1504   1.406       .  A
C1503      C1507   1.519       .  S
C1504      H1508   1.086       .  S
C1505      F1518   1.384       .  S
C1505      F1519   1.383       .  S
C1505      F1520   1.382       .  S
C1507      F1515   1.385       .  S
C1507      F1516   1.383       .  S
C1507      F1517   1.383       .  S
C1521      C1522   1.395       .  A
C1521      C1526   1.398       .  A
C1521      H1531   1.084       .  S
C1522      C1527   1.471       .  S
C1522      C1523   1.408       .  A
C1523      C1524   1.406       .  A
C1523      C1528   1.518       .  S
C1524      C1525   1.411       .  A
C1524      H1529   1.083       .  S
C1525      C1526   1.426       .  A
C1526      C1530   1.524       .  S
C1527      C1532   1.412       .  A
C1527      C1536   1.397       .  A
C1528      F1544   1.383       .  S
C1528      F1545   1.382       .  S
C1528      F1546   1.384       .  S
C1530      F1541   1.384       .  S
C1530      F1542   1.385       .  S
C1530      F1543   1.383       .  S
C1532      C1533   1.399       .  A
C1532      C1537   1.522       .  S
C1533      C1534   1.407       .  A
C1533      H1538   1.080       .  S
C1534      C1535   1.427       .  A
C1535      C1536   1.405       .  A
C1535      C1539   1.521       .  S
C1536      H1540   1.081       .  S
C1537      F1550   1.384       .  S
C1537      F1551   1.382       .  S
C1537      F1552   1.382       .  S
C1539      F1547   1.383       .  S
C1539      F1548   1.384       .  S
C1539      F1549   1.385       .  S
C1553      C1554   1.400       .  A
C1553      C1558   1.407       .  A
C1553      H1563   1.081       .  S
C1554      C1559   1.476       .  S
C1554      C1555   1.410       .  A
C1555      C1556   1.402       .  A
C1555      C1560   1.521       .  S
C1556      C1557   1.410       .  A
C1556      H1561   1.080       .  S
C1557      C1558   1.423       .  A
C1558      C1562   1.520       .  S
C1559      C1564   1.415       .  A
C1559      C1568   1.401       .  A
C1560      F1576   1.382       .  S
C1560      F1577   1.382       .  S
C1560      F1578   1.384       .  S
C1562      F1573   1.385       .  S
C1562      F1574   1.384       .  S
C1562      F1575   1.383       .  S
C1564      C1565   1.404       .  A
C1564      C1569   1.520       .  S
C1565      C1566   1.402       .  A
C1565      H1570   1.084       .  S
C1566      C1567   1.416       .  A
C1567      C1568   1.403       .  A
C1567      C1571   1.519       .  S
C1568      H1572   1.084       .  S
C1569      F1582   1.384       .  S
C1569      F1583   1.382       .  S
C1569      F1584   1.382       .  S
C1571      F1579   1.382       .  S
C1571      F1580   1.383       .  S
C1571      F1581   1.385       .  S
C1585      C1586   1.399       .  A
C1585      C1590   1.406       .  A
C1585      H1595   1.083       .  S
C1586      C1591   1.476       .  S
C1586      C1587   1.410       .  A
C1587      C1588   1.402       .  A
C1587      C1592   1.520       .  S
C1588      C1589   1.409       .  A
C1588      H1593   1.082       .  S
C1589      C1590   1.425       .  A
C1590      C1594   1.520       .  S
C1591      C1596   1.416       .  A
C1591      C1600   1.399       .  A
C1592      F1608   1.382       .  S
C1592      F1609   1.383       .  S
C1592      F1610   1.384       .  S
C1594      F1605   1.383       .  S
C1594      F1606   1.385       .  S
C1594      F1607   1.383       .  S
C1596      C1597   1.402       .  A
C1596      C1601   1.521       .  S
C1597      C1598   1.402       .  A
C1597      H1602   1.081       .  S
C1598      C1599   1.422       .  A
C1599      C1600   1.406       .  A
C1599      C1603   1.520       .  S
C1600      H1604   1.081       .  S
C1601      F1614   1.385       .  S
C1601      F1615   1.382       .  S
C1601      F1616   1.383       .  S
C1603      F1611   1.383       .  S
C1603      F1612   1.383       .  S
C1603      F1613   1.385       .  S
C1617      C1618   1.400       .  A
C1617      C1622   1.407       .  A
C1617      H1627   1.083       .  S
C1618      C1623   1.479       .  S
C1618      C1619   1.415       .  A
C1619      C1620   1.403       .  A
C1619      C1624   1.520       .  S
C1620      C1621   1.404       .  A
C1620      H1625   1.083       .  S
C1621      C1622   1.421       .  A
C1622      C1626   1.520       .  S
C1623      C1628   1.415       .  A
C1623      C1632   1.402       .  A
C1624      F1640   1.382       .  S
C1624      F1641   1.382       .  S
C1624      F1642   1.385       .  S
C1626      F1637   1.382       .  S
C1626      F1638   1.385       .  S
C1626      F1639   1.383       .  S
C1628      C1629   1.407       .  A
C1628      C1633   1.519       .  S
C1629      C1630   1.402       .  A
C1629      H1634   1.084       .  S
C1630      C1631   1.412       .  A
C1631      C1632   1.404       .  A
C1631      C1635   1.517   1_556  S
C1632      H1636   1.084       .  S
C1633      F1646   1.385       .  S
C1633      F1647   1.383       .  S
C1633      F1648   1.382       .  S
C1635      F1643   1.383       .  S
C1635      F1644   1.383       .  S
C1635      F1645   1.384       .  S
C1649      C1650   1.399       .  A
C1649      C1654   1.406       .  A
C1649      H1659   1.082       .  S
C1650      C1655   1.480       .  S
C1650      C1651   1.412       .  A
C1651      C1652   1.404       .  A
C1651      C1656   1.521       .  S
C1652      C1653   1.410       .  A
C1652      H1657   1.081       .  S
C1653      C1654   1.425       .  A
C1654      C1658   1.520       .  S
C1655      C1660   1.413       .  A
C1655      C1664   1.400       .  A
C1656      F1672   1.382       .  S
C1656      F1673   1.382       .  S
C1656      F1674   1.384       .  S
C1658      F1669   1.385       .  S
C1658      F1670   1.383       .  S
C1658      F1671   1.384       .  S
C1660      C1661   1.404       .  A
C1660      C1665   1.520       .  S
C1661      C1662   1.406       .  A
C1661      H1666   1.083       .  S
C1662      C1663   1.423       .  A
C1663      C1664   1.405       .  A
C1663      C1667   1.522       .  S
C1664      H1668   1.083       .  S
C1665      F1678   1.384       .  S
C1665      F1679   1.382       .  S
C1665      F1680   1.382       .  S
C1667      F1675   1.385       .  S
C1667      F1676   1.384       .  S
C1667      F1677   1.383       .  S
C1681      C1682   1.402       .  A
C1681      C1686   1.409       .  A
C1681      H1691   1.082       .  S
C1682      C1687   1.482       .  S
C1682      C1683   1.415       .  A
C1683      C1684   1.404       .  A
C1683      C1688   1.522       .  S
C1684      C1685   1.405       .  A
C1684      H1689   1.081       .  S
C1685      C1686   1.420       .  A
C1686      C1690   1.518       .  S
C1687      C1692   1.416       .  A
C1687      C1696   1.403       .  A
C1688      F1704   1.382       .  S
C1688      F1705   1.382       .  S
C1688      F1706   1.384       .  S
C1690      F1701   1.385       .  S
C1690      F1702   1.382       .  S
C1690      F1703   1.384       .  S
C1692      C1693   1.407       .  A
C1692      C1697   1.519       .  S
C1693      C1694   1.403       .  A
C1693      H1698   1.083       .  S
C1694      C1695   1.413       .  A
C1695      C1696   1.404       .  A
C1695      C1699   1.517       .  S
C1696      H1700   1.083       .  S
C1697      F1710   1.385       .  S
C1697      F1711   1.382       .  S
C1697      F1712   1.382       .  S
C1699      F1707   1.384       .  S
C1699      F1708   1.381   1_554  S
C1699      F1709   1.382       .  S
C1713      C1714   1.400       .  A
C1713      C1718   1.398       .  A
C1713      H1723   1.083       .  S
C1714      C1719   1.470       .  S
C1714      C1715   1.414       .  A
C1715      C1716   1.403       .  A
C1715      C1720   1.519       .  S
C1716      C1717   1.401       .  A
C1716      H1721   1.083       .  S
C1717      C1718   1.413       .  A
C1718      C1722   1.520       .  S
C1719      C1724   1.410       .  A
C1719      C1728   1.397       .  A
C1720      F1736   1.382       .  S
C1720      F1737   1.382       .  S
C1720      F1738   1.385       .  S
C1722      F1733   1.385       .  S
C1722      F1734   1.382       .  S
C1722      F1735   1.383       .  S
C1724      C1725   1.400       .  A
C1724      C1729   1.522       .  S
C1725      C1726   1.409       .  A
C1725      H1730   1.083       .  S
C1726      C1727   1.425       .  A
C1727      C1728   1.404       .  A
C1727      C1731   1.521       .  S
C1728      H1732   1.084       .  S
C1729      F1742   1.384       .  S
C1729      F1743   1.382       .  S
C1729      F1744   1.382       .  S
C1731      F1739   1.384       .  S
C1731      F1740   1.383       .  S
C1731      F1741   1.385       .  S
C1745      C1746   1.403       .  A
C1745      C1750   1.406       .  A
C1745      H1755   1.083       .  S
C1746      C1751   1.478       .  S
C1746      C1747   1.416       .  A
C1747      C1748   1.402       .  A
C1747      C1752   1.521       .  S
C1748      C1749   1.400       .  A
C1748      H1753   1.084       .  S
C1749      C1750   1.413       .  A
C1750      C1754   1.518       .  S
C1751      C1756   1.413       .  A
C1751      C1760   1.402       .  A
C1752      F1768   1.382       .  S
C1752      F1769   1.382       .  S
C1752      F1770   1.385       .  S
C1754      F1765   1.385       .  S
C1754      F1766   1.383       .  S
C1754      F1767   1.382       .  S
C1756      C1757   1.402       .  A
C1756      C1761   1.520       .  S
C1757      C1758   1.405       .  A
C1757      H1762   1.082       .  S
C1758      C1759   1.418       .  A
C1759      C1760   1.406       .  A
C1759      C1763   1.519   1_655  S
C1760      H1764   1.083       .  S
C1761      F1774   1.385       .  S
C1761      F1775   1.382       .  S
C1761      F1776   1.382       .  S
C1763      F1771   1.385       .  S
C1763      F1772   1.382       .  S
C1763      F1773   1.384       .  S
C1777      C1778   1.400       .  A
C1777      C1782   1.406       .  A
C1777      H1787   1.083       .  S
C1778      C1783   1.473       .  S
C1778      C1779   1.412       .  A
C1779      C1780   1.399       .  A
C1779      C1784   1.520       .  S
C1780      C1781   1.408       .  A
C1780      H1785   1.084       .  S
C1781      C1782   1.425       .  A
C1782      C1786   1.522       .  S
C1783      C1788   1.411       .  A
C1783      C1792   1.399       .  A
C1784      F1800   1.383       .  S
C1784      F1801   1.382       .  S
C1784      F1802   1.384       .  S
C1786      F1797   1.383       .  S
C1786      F1798   1.385       .  S
C1786      F1799   1.383       .  S
C1788      C1789   1.405       .  A
C1788      C1793   1.517       .  S
C1789      C1790   1.407       .  A
C1789      H1794   1.083       .  S
C1790      C1791   1.420       .  A
C1791      C1792   1.402       .  A
C1791      C1795   1.520       .  S
C1792      H1796   1.084       .  S
C1793      F1806   1.384       .  S
C1793      F1807   1.382       .  S
C1793      F1808   1.383       .  S
C1795      F1803   1.382       .  S
C1795      F1804   1.384       .  S
C1795      F1805   1.385       .  S
C1809      C1810   1.400       .  A
C1809      C1814   1.408       .  A
C1809      H1819   1.082       .  S
C1810      C1815   1.477       .  S
C1810      C1811   1.411       .  A
C1811      C1812   1.402       .  A
C1811      C1816   1.520       .  S
C1812      C1813   1.407       .  A
C1812      H1817   1.082       .  S
C1813      C1814   1.422       .  A
C1814      C1818   1.518       .  S
C1815      C1820   1.415       .  A
C1815      C1824   1.401       .  A
C1816      F1832   1.383       .  S
C1816      F1833   1.382       .  S
C1816      F1834   1.385       .  S
C1818      F1829   1.385       .  S
C1818      F1830   1.383       .  S
C1818      F1831   1.383       .  S
C1820      C1821   1.401       .  A
C1820      C1825   1.522       .  S
C1821      C1822   1.403       .  A
C1821      H1826   1.084       .  S
C1822      C1823   1.419       .  A
C1823      C1824   1.408       .  A
C1823      C1827   1.518       .  S
C1824      H1828   1.084       .  S
C1825      F1838   1.384       .  S
C1825      F1839   1.382       .  S
C1825      F1840   1.382       .  S
C1827      F1835   1.384       .  S
C1827      F1836   1.382       .  S
C1827      F1837   1.385       .  S
C1841      C1842   1.399       .  A
C1841      C1846   1.405       .  A
C1841      H1851   1.082       .  S
C1842      C1847   1.479       .  S
C1842      C1843   1.414       .  A
C1843      C1844   1.405       .  A
C1843      C1848   1.520       .  S
C1844      C1845   1.406       .  A
C1844      H1849   1.082       .  S
C1845      C1846   1.422       .  A
C1846      C1850   1.520       .  S
C1847      C1852   1.416       .  A
C1847      C1856   1.402       .  A
C1848      F1864   1.382       .  S
C1848      F1865   1.382       .  S
C1848      F1866   1.385       .  S
C1850      F1861   1.383       .  S
C1850      F1862   1.385       .  S
C1850      F1863   1.384       .  S
C1852      C1853   1.406   1_655  A
C1852      C1857   1.521   1_655  S
C1853      C1854   1.402       .  A
C1853      H1858   1.083       .  S
C1854      C1855   1.413   1_455  A
C1855      C1856   1.405       .  A
C1855      C1859   1.517       .  S
C1856      H1860   1.083       .  S
C1857      F1870   1.385       .  S
C1857      F1871   1.382       .  S
C1857      F1872   1.382   1_455  S
C1859      F1867   1.382       .  S
C1859      F1868   1.383       .  S
C1859      F1869   1.384       .  S
